*SPEF "ieee 1481-1999"
*DESIGN "spi_slave3"
*DATE "01:34:00 Saturday June 14, 2025"
*VENDOR "The OpenROAD Project"
*PROGRAM "OpenROAD"
*VERSION "b16bda7e82721d10566ff7e2b68f1ff0be9f9e38"
*DESIGN_FLOW "NAME_SCOPE LOCAL" "PIN_CAP NONE"
*DIVIDER /
*DELIMITER :
*BUS_DELIMITER []
*T_UNIT 1 NS
*C_UNIT 1 PF
*R_UNIT 1 OHM
*L_UNIT 1 HENRY

*NAME_MAP
*3 clk
*4 cs
*5 lfsr_seed[0]
*6 lfsr_seed[10]
*7 lfsr_seed[11]
*8 lfsr_seed[12]
*9 lfsr_seed[13]
*10 lfsr_seed[14]
*11 lfsr_seed[15]
*12 lfsr_seed[1]
*13 lfsr_seed[2]
*14 lfsr_seed[3]
*15 lfsr_seed[4]
*16 lfsr_seed[5]
*17 lfsr_seed[6]
*18 lfsr_seed[7]
*19 lfsr_seed[8]
*20 lfsr_seed[9]
*21 miso
*22 mosi
*23 sclk
*24 _000_
*25 _001_
*26 _002_
*27 _003_
*28 _004_
*29 _005_
*30 _006_
*31 _007_
*32 _008_
*33 _009_
*34 _010_
*35 _011_
*36 _012_
*37 _013_
*38 _014_
*39 _015_
*40 _016_
*41 _017_
*42 _018_
*43 _019_
*44 _020_
*45 _021_
*46 _022_
*47 _023_
*48 _024_
*49 _025_
*50 _026_
*51 _027_
*52 _028_
*53 _029_
*54 _030_
*55 _031_
*56 _032_
*57 _033_
*58 _034_
*59 _035_
*60 _036_
*61 _037_
*62 _038_
*63 _039_
*64 _040_
*65 _041_
*66 _042_
*67 _043_
*68 _044_
*69 _045_
*70 _046_
*71 _047_
*72 _048_
*73 _049_
*74 _050_
*75 _051_
*76 _052_
*77 _053_
*78 _054_
*79 _055_
*80 _056_
*81 _057_
*82 _058_
*83 _059_
*84 _060_
*85 _061_
*86 _062_
*87 _063_
*88 _064_
*89 _065_
*90 _066_
*91 _067_
*92 _068_
*93 _069_
*94 _070_
*95 _071_
*96 bit_cnt\[0\]
*97 bit_cnt\[1\]
*98 bit_cnt\[2\]
*99 clknet_0_clk
*100 clknet_1_0__leaf_clk
*101 clknet_1_1__leaf_clk
*102 lfsr_inst\.lfsr_out\[0\]
*103 lfsr_inst\.lfsr_out\[10\]
*104 lfsr_inst\.lfsr_out\[11\]
*105 lfsr_inst\.lfsr_out\[12\]
*106 lfsr_inst\.lfsr_out\[13\]
*107 lfsr_inst\.lfsr_out\[14\]
*108 lfsr_inst\.lfsr_out\[15\]
*109 lfsr_inst\.lfsr_out\[1\]
*110 lfsr_inst\.lfsr_out\[2\]
*111 lfsr_inst\.lfsr_out\[3\]
*112 lfsr_inst\.lfsr_out\[4\]
*113 lfsr_inst\.lfsr_out\[5\]
*114 lfsr_inst\.lfsr_out\[6\]
*115 lfsr_inst\.lfsr_out\[7\]
*116 lfsr_inst\.lfsr_out\[8\]
*117 lfsr_inst\.lfsr_out\[9\]
*118 lfsr_inst\.load_seed
*119 net1
*120 net10
*121 net11
*122 net12
*123 net13
*124 net14
*125 net15
*126 net16
*127 net17
*128 net18
*129 net19
*130 net2
*131 net20
*132 net21
*133 net22
*134 net23
*135 net24
*136 net25
*137 net26
*138 net27
*139 net28
*140 net29
*141 net3
*142 net30
*143 net31
*144 net32
*145 net33
*146 net34
*147 net35
*148 net36
*149 net37
*150 net38
*151 net39
*152 net4
*153 net40
*154 net41
*155 net42
*156 net43
*157 net44
*158 net45
*159 net46
*160 net5
*161 net6
*162 net7
*163 net8
*164 net9
*165 seeded
*166 tx_buffer\[0\]
*167 tx_buffer\[1\]
*168 tx_buffer\[2\]
*169 tx_buffer\[3\]
*170 tx_buffer\[4\]
*171 tx_buffer\[5\]
*172 tx_buffer\[6\]
*173 tx_buffer\[7\]
*174 FILLER_0_0_103
*175 FILLER_0_0_15
*176 FILLER_0_0_23
*177 FILLER_0_0_27
*178 FILLER_0_0_29
*179 FILLER_0_0_3
*180 FILLER_0_0_34
*181 FILLER_0_0_42
*182 FILLER_0_0_48
*183 FILLER_0_0_55
*184 FILLER_0_0_57
*185 FILLER_0_0_62
*186 FILLER_0_0_69
*187 FILLER_0_0_77
*188 FILLER_0_0_83
*189 FILLER_0_0_85
*190 FILLER_0_0_97
*191 FILLER_0_10_103
*192 FILLER_0_10_22
*193 FILLER_0_10_32
*194 FILLER_0_10_50
*195 FILLER_0_10_58
*196 FILLER_0_10_62
*197 FILLER_0_10_74
*198 FILLER_0_10_83
*199 FILLER_0_10_85
*200 FILLER_0_10_93
*201 FILLER_0_11_29
*202 FILLER_0_11_57
*203 FILLER_0_11_6
*204 FILLER_0_11_65
*205 FILLER_0_11_80
*206 FILLER_0_11_92
*207 FILLER_0_12_102
*208 FILLER_0_12_12
*209 FILLER_0_12_29
*210 FILLER_0_12_3
*211 FILLER_0_12_41
*212 FILLER_0_12_58
*213 FILLER_0_12_66
*214 FILLER_0_12_71
*215 FILLER_0_12_81
*216 FILLER_0_12_85
*217 FILLER_0_13_3
*218 FILLER_0_13_38
*219 FILLER_0_13_50
*220 FILLER_0_13_57
*221 FILLER_0_13_71
*222 FILLER_0_14_11
*223 FILLER_0_14_22
*224 FILLER_0_14_3
*225 FILLER_0_14_45
*226 FILLER_0_14_83
*227 FILLER_0_15_101
*228 FILLER_0_15_25
*229 FILLER_0_15_6
*230 FILLER_0_15_89
*231 FILLER_0_16_103
*232 FILLER_0_16_11
*233 FILLER_0_16_15
*234 FILLER_0_16_27
*235 FILLER_0_16_3
*236 FILLER_0_16_57
*237 FILLER_0_16_61
*238 FILLER_0_16_65
*239 FILLER_0_16_77
*240 FILLER_0_16_83
*241 FILLER_0_16_85
*242 FILLER_0_16_97
*243 FILLER_0_17_103
*244 FILLER_0_17_15
*245 FILLER_0_17_27
*246 FILLER_0_17_29
*247 FILLER_0_17_3
*248 FILLER_0_17_37
*249 FILLER_0_17_41
*250 FILLER_0_17_46
*251 FILLER_0_17_54
*252 FILLER_0_17_57
*253 FILLER_0_17_69
*254 FILLER_0_17_76
*255 FILLER_0_17_85
*256 FILLER_0_17_97
*257 FILLER_0_1_103
*258 FILLER_0_1_15
*259 FILLER_0_1_26
*260 FILLER_0_1_3
*261 FILLER_0_1_36
*262 FILLER_0_1_57
*263 FILLER_0_1_61
*264 FILLER_0_1_74
*265 FILLER_0_1_91
*266 FILLER_0_2_3
*267 FILLER_0_2_45
*268 FILLER_0_2_82
*269 FILLER_0_3_103
*270 FILLER_0_3_23
*271 FILLER_0_3_3
*272 FILLER_0_3_37
*273 FILLER_0_4_14
*274 FILLER_0_4_24
*275 FILLER_0_4_3
*276 FILLER_0_4_37
*277 FILLER_0_4_52
*278 FILLER_0_4_70
*279 FILLER_0_4_83
*280 FILLER_0_5_34
*281 FILLER_0_5_40
*282 FILLER_0_5_6
*283 FILLER_0_5_60
*284 FILLER_0_5_79
*285 FILLER_0_5_85
*286 FILLER_0_6_101
*287 FILLER_0_6_18
*288 FILLER_0_6_35
*289 FILLER_0_6_45
*290 FILLER_0_6_6
*291 FILLER_0_6_62
*292 FILLER_0_7_35
*293 FILLER_0_7_52
*294 FILLER_0_7_6
*295 FILLER_0_8_29
*296 FILLER_0_8_3
*297 FILLER_0_8_52
*298 FILLER_0_8_82
*299 FILLER_0_9_103
*300 FILLER_0_9_21
*301 FILLER_0_9_53
*302 FILLER_0_9_6
*303 FILLER_0_9_73
*304 PHY_EDGE_ROW_0_Left_18
*305 PHY_EDGE_ROW_0_Right_0
*306 PHY_EDGE_ROW_10_Left_28
*307 PHY_EDGE_ROW_10_Right_10
*308 PHY_EDGE_ROW_11_Left_29
*309 PHY_EDGE_ROW_11_Right_11
*310 PHY_EDGE_ROW_12_Left_30
*311 PHY_EDGE_ROW_12_Right_12
*312 PHY_EDGE_ROW_13_Left_31
*313 PHY_EDGE_ROW_13_Right_13
*314 PHY_EDGE_ROW_14_Left_32
*315 PHY_EDGE_ROW_14_Right_14
*316 PHY_EDGE_ROW_15_Left_33
*317 PHY_EDGE_ROW_15_Right_15
*318 PHY_EDGE_ROW_16_Left_34
*319 PHY_EDGE_ROW_16_Right_16
*320 PHY_EDGE_ROW_17_Left_35
*321 PHY_EDGE_ROW_17_Right_17
*322 PHY_EDGE_ROW_1_Left_19
*323 PHY_EDGE_ROW_1_Right_1
*324 PHY_EDGE_ROW_2_Left_20
*325 PHY_EDGE_ROW_2_Right_2
*326 PHY_EDGE_ROW_3_Left_21
*327 PHY_EDGE_ROW_3_Right_3
*328 PHY_EDGE_ROW_4_Left_22
*329 PHY_EDGE_ROW_4_Right_4
*330 PHY_EDGE_ROW_5_Left_23
*331 PHY_EDGE_ROW_5_Right_5
*332 PHY_EDGE_ROW_6_Left_24
*333 PHY_EDGE_ROW_6_Right_6
*334 PHY_EDGE_ROW_7_Left_25
*335 PHY_EDGE_ROW_7_Right_7
*336 PHY_EDGE_ROW_8_Left_26
*337 PHY_EDGE_ROW_8_Right_8
*338 PHY_EDGE_ROW_9_Left_27
*339 PHY_EDGE_ROW_9_Right_9
*340 TAP_TAPCELL_ROW_0_36
*341 TAP_TAPCELL_ROW_0_37
*342 TAP_TAPCELL_ROW_0_38
*343 TAP_TAPCELL_ROW_10_52
*344 TAP_TAPCELL_ROW_10_53
*345 TAP_TAPCELL_ROW_11_54
*346 TAP_TAPCELL_ROW_12_55
*347 TAP_TAPCELL_ROW_12_56
*348 TAP_TAPCELL_ROW_13_57
*349 TAP_TAPCELL_ROW_14_58
*350 TAP_TAPCELL_ROW_14_59
*351 TAP_TAPCELL_ROW_15_60
*352 TAP_TAPCELL_ROW_16_61
*353 TAP_TAPCELL_ROW_16_62
*354 TAP_TAPCELL_ROW_17_63
*355 TAP_TAPCELL_ROW_17_64
*356 TAP_TAPCELL_ROW_17_65
*357 TAP_TAPCELL_ROW_1_39
*358 TAP_TAPCELL_ROW_2_40
*359 TAP_TAPCELL_ROW_2_41
*360 TAP_TAPCELL_ROW_3_42
*361 TAP_TAPCELL_ROW_4_43
*362 TAP_TAPCELL_ROW_4_44
*363 TAP_TAPCELL_ROW_5_45
*364 TAP_TAPCELL_ROW_6_46
*365 TAP_TAPCELL_ROW_6_47
*366 TAP_TAPCELL_ROW_7_48
*367 TAP_TAPCELL_ROW_8_49
*368 TAP_TAPCELL_ROW_8_50
*369 TAP_TAPCELL_ROW_9_51
*370 _072_
*371 _073_
*372 _074_
*373 _075_
*374 _076_
*375 _077_
*376 _078_
*377 _079_
*378 _080_
*379 _081_
*380 _082_
*381 _083_
*382 _084_
*383 _085_
*384 _086_
*385 _087_
*386 _088_
*387 _089_
*388 _090_
*389 _091_
*390 _092_
*391 _093_
*392 _094_
*393 _095_
*394 _096_
*395 _097_
*396 _098_
*397 _099_
*398 _100_
*399 _101_
*400 _102_
*401 _103_
*402 _104_
*403 _105_
*404 _106_
*405 _107_
*406 _108_
*407 _109_
*408 _110_
*409 _111_
*410 _112_
*411 _113_
*412 _114_
*413 _115_
*414 _116_
*415 _117_
*416 _118_
*417 _119_
*418 _120_
*419 _121_
*420 _122_
*421 _123_
*422 _124_
*423 _125_
*424 _126_
*425 _127_
*426 _128_
*427 _129_
*428 _130_
*429 _131_
*430 _132_
*431 _133_
*432 _134_
*433 _135_
*434 _136_
*435 _137_
*436 _138_
*437 _139_
*438 _140_
*439 _141_
*440 _142_
*441 _143_
*442 _144_
*443 _145_
*444 _146_
*445 _147_
*446 _148_
*447 _149_
*448 _150_
*449 _151_
*450 _152_
*451 _153_
*452 _154_
*453 _155_
*454 _156_
*455 _157_
*456 _158_
*457 _159_
*458 _160_
*459 _161_
*460 _162_
*461 _163_
*462 _164_
*463 _165_
*464 _166_
*465 _167_
*466 _168_
*467 _169_
*468 _170_
*469 _171_
*470 _172_
*471 _173_
*472 clkbuf_0_clk
*473 clkbuf_1_0__f_clk
*474 clkbuf_1_1__f_clk
*475 clkload0
*476 hold1
*477 hold10
*478 hold11
*479 hold12
*480 hold13
*481 hold14
*482 hold15
*483 hold16
*484 hold17
*485 hold18
*486 hold19
*487 hold2
*488 hold20
*489 hold21
*490 hold22
*491 hold23
*492 hold24
*493 hold25
*494 hold26
*495 hold27
*496 hold3
*497 hold4
*498 hold5
*499 hold6
*500 hold7
*501 hold8
*502 hold9
*503 input1
*504 input10
*505 input11
*506 input12
*507 input13
*508 input14
*509 input15
*510 input16
*511 input17
*512 input18
*513 input2
*514 input3
*515 input4
*516 input5
*517 input6
*518 input7
*519 input8
*520 input9
*521 output19

*PORTS
clk I
cs I
lfsr_seed[0] I
lfsr_seed[10] I
lfsr_seed[11] I
lfsr_seed[12] I
lfsr_seed[13] I
lfsr_seed[14] I
lfsr_seed[15] I
lfsr_seed[1] I
lfsr_seed[2] I
lfsr_seed[3] I
lfsr_seed[4] I
lfsr_seed[5] I
lfsr_seed[6] I
lfsr_seed[7] I
lfsr_seed[8] I
lfsr_seed[9] I
miso O
mosi I
sclk I

*D_NET *3 0.0075273
*CONN
*P clk I
*I *472:A I *D sky130_fd_sc_hd__clkbuf_16
*CAP
1 clk 0.00368313
2 *472:A 0
3 *3:19 0.00368313
4 *3:19 *518:A 0
5 *3:19 *11:17 2.12457e-05
6 *3:19 *99:33 0.000139792
7 *3:19 *101:103 0
*RES
1 clk *3:19 47.3751 
2 *3:19 *472:A 23 
*END

*D_NET *4 0.00106035
*CONN
*P cs I
*I *503:A I *D sky130_fd_sc_hd__buf_1
*CAP
1 cs 0.000511769
2 *503:A 0.000511769
3 *503:A *119:10 3.68097e-05
*RES
1 cs *503:A 49.2686 
*END

*D_NET *5 0.00057959
*CONN
*P lfsr_seed[0] I
*I *513:A I *D sky130_fd_sc_hd__clkbuf_1
*CAP
1 lfsr_seed[0] 0.000265216
2 *513:A 0.000265216
3 *513:A *515:A 2.12457e-05
4 *513:A *516:A 0
5 *513:A *12:17 2.79122e-05
6 *513:A *100:18 0
*RES
1 lfsr_seed[0] *513:A 47.7832 
*END

*D_NET *6 0.00100747
*CONN
*P lfsr_seed[10] I
*I *514:A I *D sky130_fd_sc_hd__clkbuf_1
*CAP
1 lfsr_seed[10] 0.000493995
2 *514:A 0.000493995
3 *514:A *507:A 0
4 *514:A *508:A 0
5 *514:A *141:10 1.94812e-05
*RES
1 lfsr_seed[10] *514:A 48.2743 
*END

*D_NET *7 0.000606357
*CONN
*P lfsr_seed[11] I
*I *515:A I *D sky130_fd_sc_hd__clkbuf_1
*CAP
1 lfsr_seed[11] 0.000278599
2 *515:A 0.000278599
3 *515:A *516:A 2.79122e-05
4 *513:A *515:A 2.12457e-05
*RES
1 lfsr_seed[11] *515:A 49.8062 
*END

*D_NET *8 0.000756065
*CONN
*P lfsr_seed[12] I
*I *516:A I *D sky130_fd_sc_hd__clkbuf_1
*CAP
1 lfsr_seed[12] 0.000318597
2 *516:A 0.000318597
3 *516:A *468:CLK 5.90856e-06
4 *516:A *518:A 0
5 *516:A *9:17 2.12457e-05
6 *516:A *100:84 6.38048e-05
7 *513:A *516:A 0
8 *515:A *516:A 2.79122e-05
*RES
1 lfsr_seed[12] *516:A 49.5439 
*END

*D_NET *9 0.000672315
*CONN
*P lfsr_seed[13] I
*I *517:A I *D sky130_fd_sc_hd__clkbuf_1
*CAP
1 lfsr_seed[13] 0.000311579
2 *517:A 0
3 *9:17 0.000311579
4 *9:17 *518:A 2.79122e-05
5 *9:17 *100:84 0
6 *516:A *9:17 2.12457e-05
*RES
1 lfsr_seed[13] *9:17 27.5105 
2 *9:17 *517:A 23 
*END

*D_NET *10 0.000596036
*CONN
*P lfsr_seed[14] I
*I *518:A I *D sky130_fd_sc_hd__clkbuf_1
*CAP
1 lfsr_seed[14] 0.000268749
2 *518:A 0.000268749
3 *518:A *100:93 3.06253e-05
4 *516:A *518:A 0
5 *3:19 *518:A 0
6 *9:17 *518:A 2.79122e-05
*RES
1 lfsr_seed[14] *518:A 48.1354 
*END

*D_NET *11 0.000688644
*CONN
*P lfsr_seed[15] I
*I *519:A I *D sky130_fd_sc_hd__clkbuf_1
*CAP
1 lfsr_seed[15] 0.000333699
2 *519:A 0
3 *11:17 0.000333699
4 *11:17 *100:106 0
5 *3:19 *11:17 2.12457e-05
*RES
1 lfsr_seed[15] *11:17 27.8627 
2 *11:17 *519:A 23 
*END

*D_NET *12 0.000721673
*CONN
*P lfsr_seed[1] I
*I *520:A I *D sky130_fd_sc_hd__clkbuf_1
*CAP
1 lfsr_seed[1] 0.00034688
2 *520:A 0
3 *12:17 0.00034688
4 *12:17 *100:18 0
5 *12:17 *100:20 0
6 *513:A *12:17 2.79122e-05
*RES
1 lfsr_seed[1] *12:17 27.8627 
2 *12:17 *520:A 23 
*END

*D_NET *13 0.00100995
*CONN
*P lfsr_seed[2] I
*I *504:A I *D sky130_fd_sc_hd__clkbuf_1
*CAP
1 lfsr_seed[2] 0.000495233
2 *504:A 0.000495233
3 *504:A *505:A 0
4 *504:A *120:10 1.94812e-05
*RES
1 lfsr_seed[2] *504:A 48.2743 
*END

*D_NET *14 0.00090292
*CONN
*P lfsr_seed[3] I
*I *505:A I *D sky130_fd_sc_hd__clkbuf_1
*CAP
1 lfsr_seed[3] 0.00045146
2 *505:A 0.00045146
3 *504:A *505:A 0
*RES
1 lfsr_seed[3] *505:A 47.3214 
*END

*D_NET *15 0.00104474
*CONN
*P lfsr_seed[4] I
*I *506:A I *D sky130_fd_sc_hd__clkbuf_1
*CAP
1 lfsr_seed[4] 0.000513201
2 *506:A 0.000513201
3 *506:A *507:A 0
4 *506:A *122:10 1.83408e-05
*RES
1 lfsr_seed[4] *506:A 48.2743 
*END

*D_NET *16 0.00090292
*CONN
*P lfsr_seed[5] I
*I *507:A I *D sky130_fd_sc_hd__clkbuf_1
*CAP
1 lfsr_seed[5] 0.00045146
2 *507:A 0.00045146
3 *506:A *507:A 0
4 *514:A *507:A 0
*RES
1 lfsr_seed[5] *507:A 47.3214 
*END

*D_NET *17 0.00100823
*CONN
*P lfsr_seed[6] I
*I *508:A I *D sky130_fd_sc_hd__clkbuf_1
*CAP
1 lfsr_seed[6] 0.000494944
2 *508:A 0.000494944
3 *508:A *124:14 1.83408e-05
4 *514:A *508:A 0
*RES
1 lfsr_seed[6] *508:A 48.2743 
*END

*D_NET *18 0.00100427
*CONN
*P lfsr_seed[7] I
*I *509:A I *D sky130_fd_sc_hd__clkbuf_1
*CAP
1 lfsr_seed[7] 0.000502134
2 *509:A 0.000502134
*RES
1 lfsr_seed[7] *509:A 48.2743 
*END

*D_NET *19 0.000500198
*CONN
*P lfsr_seed[8] I
*I *510:A I *D sky130_fd_sc_hd__clkbuf_1
*CAP
1 lfsr_seed[8] 0.000250099
2 *510:A 0.000250099
3 *510:A *511:A 0
*RES
1 lfsr_seed[8] *510:A 47.1648 
*END

*D_NET *20 0.000614384
*CONN
*P lfsr_seed[9] I
*I *511:A I *D sky130_fd_sc_hd__clkbuf_1
*CAP
1 lfsr_seed[9] 0.000304708
2 *511:A 0.000304708
3 *511:A *127:10 4.96811e-06
4 *511:A *143:10 0
5 *510:A *511:A 0
*RES
1 lfsr_seed[9] *511:A 48.2212 
*END

*D_NET *21 0.000901031
*CONN
*P miso O
*I *521:X O *D sky130_fd_sc_hd__buf_2
*CAP
1 miso 0.000399951
2 *521:X 0.000399951
3 miso *512:A 6.89228e-05
4 miso *129:10 3.22051e-05
*RES
1 *521:X miso 49.1948 
*END

*D_NET *23 0.00090948
*CONN
*P sclk I
*I *512:A I *D sky130_fd_sc_hd__buf_1
*CAP
1 sclk 0.000330166
2 *512:A 0.000330166
3 *512:A *128:23 0.000180224
4 miso *512:A 6.89228e-05
*RES
1 sclk *512:A 49.2777 
*END

*D_NET *24 0.00158586
*CONN
*I *439:B I *D sky130_fd_sc_hd__or2_1
*I *453:D I *D sky130_fd_sc_hd__dfxtp_2
*I *377:Y O *D sky130_fd_sc_hd__nor2_1
*CAP
1 *439:B 0
2 *453:D 0.00034049
3 *377:Y 0.000193794
4 *24:10 0.000534284
5 *453:D *453:CLK 9.42248e-05
6 *453:D *454:CLK 0.000121814
7 *453:D *53:8 1.13812e-05
8 *453:D *101:112 1.83667e-05
9 *453:D *131:16 6.51997e-06
10 *24:10 *53:8 0.000115526
11 *24:10 *80:10 0.000113398
12 *24:10 *131:8 2.95526e-05
13 *24:10 *131:16 6.5117e-06
*RES
1 *377:Y *24:10 41.9564 
2 *24:10 *453:D 45.1102 
3 *24:10 *439:B 38 
*END

*D_NET *25 0.00135099
*CONN
*I *456:D I *D sky130_fd_sc_hd__dfxtp_1
*I *383:X O *D sky130_fd_sc_hd__clkbuf_1
*CAP
1 *456:D 0
2 *383:X 0.000554761
3 *25:8 0.000554761
4 *25:8 *500:A 0.000120632
5 *25:8 *137:10 3.06971e-05
6 *25:8 *164:10 9.01351e-05
*RES
1 *383:X *25:8 33.6937 
2 *25:8 *456:D 23 
*END

*D_NET *26 0.000315443
*CONN
*I *466:D I *D sky130_fd_sc_hd__dfxtp_1
*I *403:X O *D sky130_fd_sc_hd__clkbuf_1
*CAP
1 *466:D 4.11529e-05
2 *403:X 8.11176e-05
3 *26:8 0.00012227
4 *466:D *101:94 1.35106e-05
5 *26:8 *493:A 3.99792e-05
6 *26:8 *103:42 1.74126e-05
*RES
1 *403:X *26:8 39.5536 
2 *26:8 *466:D 38.668 
*END

*D_NET *27 0.00123069
*CONN
*I *467:D I *D sky130_fd_sc_hd__dfxtp_1
*I *405:X O *D sky130_fd_sc_hd__clkbuf_1
*CAP
1 *467:D 5.02875e-05
2 *405:X 0.00039078
3 *27:10 0.000441068
4 *467:D *406:A0 9.04092e-05
5 *27:10 *405:A 7.53384e-06
6 *27:10 *61:8 8.82119e-05
7 *27:10 *103:18 2.365e-05
8 *27:10 *152:14 0.000138747
*RES
1 *405:X *27:10 44.1729 
2 *27:10 *467:D 38.9943 
*END

*D_NET *28 0.000278362
*CONN
*I *468:D I *D sky130_fd_sc_hd__dfxtp_1
*I *407:X O *D sky130_fd_sc_hd__clkbuf_1
*CAP
1 *468:D 1.66233e-05
2 *407:X 6.47943e-05
3 *28:8 8.14177e-05
4 *28:8 *100:71 0.000115526
*RES
1 *407:X *28:8 39.5536 
2 *28:8 *468:D 38.1916 
*END

*D_NET *29 0.000242059
*CONN
*I *469:D I *D sky130_fd_sc_hd__dfxtp_1
*I *409:X O *D sky130_fd_sc_hd__clkbuf_1
*CAP
1 *469:D 1.11712e-05
2 *409:X 8.70816e-05
3 *29:8 9.82528e-05
4 *469:D *161:10 1.64354e-05
5 *29:8 *100:84 2.91178e-05
*RES
1 *409:X *29:8 39.5536 
2 *29:8 *469:D 38.1916 
*END

*D_NET *30 0.000293113
*CONN
*I *470:D I *D sky130_fd_sc_hd__dfxtp_1
*I *411:X O *D sky130_fd_sc_hd__clkbuf_1
*CAP
1 *470:D 1.58638e-05
2 *411:X 0.00010547
3 *30:8 0.000121334
4 *30:8 *100:93 4.76877e-05
5 *30:8 *100:106 2.75733e-06
6 *30:8 *118:20 0
*RES
1 *411:X *30:8 40.2579 
2 *30:8 *470:D 38.1916 
*END

*D_NET *31 0.000288611
*CONN
*I *471:D I *D sky130_fd_sc_hd__dfxtp_1
*I *413:X O *D sky130_fd_sc_hd__clkbuf_1
*CAP
1 *471:D 1.13183e-05
2 *413:X 0.000107734
3 *31:8 0.000119053
4 *471:D *100:117 1.64354e-05
5 *31:8 *65:10 3.40698e-05
*RES
1 *413:X *31:8 39.9057 
2 *31:8 *471:D 38.1916 
*END

*D_NET *32 0.000277689
*CONN
*I *457:D I *D sky130_fd_sc_hd__dfxtp_1
*I *385:X O *D sky130_fd_sc_hd__clkbuf_1
*CAP
1 *457:D 4.80329e-05
2 *385:X 9.08115e-05
3 *32:8 0.000138844
*RES
1 *385:X *32:8 39.5536 
2 *32:8 *457:D 38.668 
*END

*D_NET *33 0.000363597
*CONN
*I *458:D I *D sky130_fd_sc_hd__dfxtp_1
*I *387:X O *D sky130_fd_sc_hd__clkbuf_1
*CAP
1 *458:D 0.000103528
2 *387:X 0.000103528
3 *458:D *100:28 2.46906e-05
4 *458:D *100:35 0.00013185
*RES
1 *387:X *458:D 48.3873 
*END

*D_NET *34 0.000825691
*CONN
*I *459:D I *D sky130_fd_sc_hd__dfxtp_1
*I *389:X O *D sky130_fd_sc_hd__clkbuf_1
*CAP
1 *459:D 9.25896e-05
2 *389:X 8.16593e-05
3 *34:8 0.000174249
4 *459:D *100:35 5.58003e-05
5 *459:D *100:48 0.000115183
6 *34:8 *94:8 0.000192032
7 *34:8 *110:10 8.57577e-05
8 *34:8 *139:10 2.84201e-05
*RES
1 *389:X *34:8 40.61 
2 *34:8 *459:D 39.8902 
*END

*D_NET *35 0.00137282
*CONN
*I *460:D I *D sky130_fd_sc_hd__dfxtp_1
*I *391:X O *D sky130_fd_sc_hd__clkbuf_1
*CAP
1 *460:D 1.01257e-05
2 *391:X 0.000384229
3 *35:10 0.000394355
4 *460:D *90:32 1.79713e-05
5 *35:10 *393:A 5.43448e-05
6 *35:10 *100:48 4.49481e-05
7 *35:10 *122:10 0.00038323
8 *35:10 *138:8 8.36198e-05
*RES
1 *391:X *35:10 46.7621 
2 *35:10 *460:D 38.1916 
*END

*D_NET *36 0.00173951
*CONN
*I *461:D I *D sky130_fd_sc_hd__dfxtp_1
*I *393:X O *D sky130_fd_sc_hd__clkbuf_1
*CAP
1 *461:D 1.02508e-05
2 *393:X 0.00041033
3 *36:10 0.00042058
4 *461:D *461:CLK 1.64354e-05
5 *36:10 *393:A 0.000152995
6 *36:10 *55:10 0.000137594
7 *36:10 *111:10 0.000349328
8 *36:10 *112:10 0.000241999
*RES
1 *393:X *36:10 48.3157 
2 *36:10 *461:D 38.1916 
*END

*D_NET *37 0.000666346
*CONN
*I *462:D I *D sky130_fd_sc_hd__dfxtp_1
*I *395:X O *D sky130_fd_sc_hd__clkbuf_1
*CAP
1 *462:D 0.000114408
2 *395:X 9.97868e-05
3 *37:8 0.000214195
4 *462:D *101:52 0.000237956
*RES
1 *395:X *37:8 39.5536 
2 *37:8 *462:D 40.5737 
*END

*D_NET *38 0.0004491
*CONN
*I *463:D I *D sky130_fd_sc_hd__dfxtp_1
*I *397:X O *D sky130_fd_sc_hd__clkbuf_1
*CAP
1 *463:D 5.13021e-05
2 *397:X 5.69162e-05
3 *38:8 0.000108218
4 *463:D *463:CLK 2.92509e-05
5 *38:8 *463:CLK 8.78864e-05
6 *38:8 *125:8 0.000115526
*RES
1 *397:X *38:8 39.5536 
2 *38:8 *463:D 39.1652 
*END

*D_NET *39 0.000445484
*CONN
*I *464:D I *D sky130_fd_sc_hd__dfxtp_1
*I *399:X O *D sky130_fd_sc_hd__clkbuf_1
*CAP
1 *464:D 0.000124215
2 *399:X 9.08267e-05
3 *39:8 0.000215042
4 *464:D *464:CLK 1.54006e-05
*RES
1 *399:X *39:8 39.5536 
2 *39:8 *464:D 40.0973 
*END

*D_NET *40 0.000769059
*CONN
*I *465:D I *D sky130_fd_sc_hd__dfxtp_1
*I *401:X O *D sky130_fd_sc_hd__clkbuf_1
*CAP
1 *465:D 6.24628e-05
2 *401:X 0.000223574
3 *40:10 0.000286037
4 *40:10 *101:33 0.000167443
5 *40:10 *146:10 0
6 *40:10 *167:14 2.95423e-05
*RES
1 *401:X *40:10 41.8321 
2 *40:10 *465:D 38.9943 
*END

*D_NET *41 0.0015803
*CONN
*I *455:CLK I *D sky130_fd_sc_hd__dfxtp_1
*I *441:Y O *D sky130_fd_sc_hd__inv_2
*CAP
1 *455:CLK 0
2 *441:Y 0.000667726
3 *41:10 0.000667726
4 *41:10 *444:CLK 2.07484e-05
5 *41:10 *43:10 3.6608e-05
6 *41:10 *44:8 0.000171589
7 *41:10 *128:23 1.59071e-05
*RES
1 *441:Y *41:10 47.6736 
2 *41:10 *455:CLK 38 
*END

*D_NET *42 0.000913796
*CONN
*I *442:D I *D sky130_fd_sc_hd__dfxtp_1
*I *416:Y O *D sky130_fd_sc_hd__nor2_1
*CAP
1 *442:D 1.3337e-05
2 *416:Y 0.000395478
3 *42:10 0.000408815
4 *42:10 *416:A 9.61662e-05
*RES
1 *416:Y *42:10 44.815 
2 *42:10 *442:D 38.1916 
*END

*D_NET *43 0.00179786
*CONN
*I *443:D I *D sky130_fd_sc_hd__dfxtp_1
*I *419:Y O *D sky130_fd_sc_hd__nor2_1
*CAP
1 *443:D 0.000271684
2 *419:Y 0.000525238
3 *43:10 0.000796923
4 *43:10 *54:10 0.000167402
5 *43:10 *96:78 0
6 *41:10 *43:10 3.6608e-05
*RES
1 *419:Y *43:10 46.3271 
2 *43:10 *443:D 42.4795 
*END

*D_NET *44 0.000820577
*CONN
*I *444:D I *D sky130_fd_sc_hd__dfxtp_1
*I *420:X O *D sky130_fd_sc_hd__xor2_1
*CAP
1 *444:D 0
2 *420:X 0.000308182
3 *44:8 0.000308182
4 *44:8 *420:A 0
5 *44:8 *98:6 3.26241e-05
6 *41:10 *44:8 0.000171589
*RES
1 *420:X *44:8 29.8823 
2 *44:8 *444:D 23 
*END

*D_NET *45 0.000669359
*CONN
*I *445:D I *D sky130_fd_sc_hd__dfxtp_1
*I *424:X O *D sky130_fd_sc_hd__clkbuf_1
*CAP
1 *445:D 0.000118193
2 *424:X 0.000127101
3 *45:8 0.000245294
4 *445:D *445:CLK 0.000128366
5 *45:8 *72:14 5.04049e-05
*RES
1 *424:X *45:8 40.61 
2 *45:8 *445:D 39.8902 
*END

*D_NET *46 0.00121538
*CONN
*I *446:D I *D sky130_fd_sc_hd__dfxtp_1
*I *426:X O *D sky130_fd_sc_hd__clkbuf_1
*CAP
1 *446:D 0
2 *426:X 8.87283e-05
3 *46:22 0.000260145
4 *46:10 0.000348873
5 *46:10 *426:A 5.58003e-05
6 *46:10 *101:103 8.36198e-05
7 *46:10 *103:42 8.57577e-05
8 *46:22 *426:A 2.13216e-05
9 *46:22 *101:103 1.79317e-05
10 *46:22 *103:42 0.000183544
11 *46:22 *104:16 8.42008e-06
12 *46:22 *153:22 6.12392e-05
*RES
1 *426:X *46:10 39.8229 
2 *46:10 *46:22 49.205 
3 *46:22 *446:D 23 
*END

*D_NET *47 0.000358539
*CONN
*I *447:D I *D sky130_fd_sc_hd__dfxtp_1
*I *428:X O *D sky130_fd_sc_hd__clkbuf_1
*CAP
1 *447:D 1.2998e-05
2 *428:X 0.000144581
3 *47:10 0.000157579
4 *47:10 *74:10 0
5 *47:10 *101:112 4.33799e-05
*RES
1 *428:X *47:10 40.5271 
2 *47:10 *447:D 38.1916 
*END

*D_NET *48 0.000403372
*CONN
*I *448:D I *D sky130_fd_sc_hd__dfxtp_1
*I *430:X O *D sky130_fd_sc_hd__clkbuf_1
*CAP
1 *448:D 0.000137503
2 *430:X 0.000137503
3 *448:D *101:154 0.000128366
*RES
1 *430:X *448:D 48.3873 
*END

*D_NET *49 0.000874542
*CONN
*I *449:D I *D sky130_fd_sc_hd__dfxtp_1
*I *432:X O *D sky130_fd_sc_hd__clkbuf_1
*CAP
1 *449:D 0
2 *432:X 0.000352637
3 *49:10 0.000352637
4 *49:10 *432:A 0.000113467
5 *49:10 *449:CLK 5.58003e-05
*RES
1 *432:X *49:10 28.3909 
2 *49:10 *449:D 23 
*END

*D_NET *50 0.000670053
*CONN
*I *450:D I *D sky130_fd_sc_hd__dfxtp_1
*I *434:X O *D sky130_fd_sc_hd__clkbuf_1
*CAP
1 *450:D 1.58638e-05
2 *434:X 0.000199145
3 *50:10 0.000215009
4 *50:10 *432:A 7.79323e-05
5 *50:10 *450:CLK 8.36198e-05
6 *50:10 *71:18 7.84832e-05
*RES
1 *434:X *50:10 41.8321 
2 *50:10 *450:D 38.1916 
*END

*D_NET *51 0.0017618
*CONN
*I *451:D I *D sky130_fd_sc_hd__dfxtp_1
*I *436:X O *D sky130_fd_sc_hd__clkbuf_1
*CAP
1 *451:D 9.65745e-05
2 *436:X 0.000456644
3 *51:10 0.000553219
4 *51:10 *436:A 0.000278215
5 *51:10 *52:10 0.000214046
6 *51:10 *145:10 0.000163102
*RES
1 *436:X *51:10 47.6321 
2 *51:10 *451:D 39.6209 
*END

*D_NET *52 0.00208203
*CONN
*I *452:D I *D sky130_fd_sc_hd__dfxtp_1
*I *438:X O *D sky130_fd_sc_hd__clkbuf_1
*CAP
1 *452:D 6.80466e-05
2 *438:X 0.000317429
3 *52:10 0.000385476
4 *452:D *118:12 0.000145305
5 *52:10 *437:S 0.000458078
6 *52:10 *78:8 6.00824e-05
7 *52:10 *145:10 0.000433569
8 *51:10 *52:10 0.000214046
*RES
1 *438:X *52:10 47.4664 
2 *52:10 *452:D 39.6209 
*END

*D_NET *53 0.000584778
*CONN
*I *454:D I *D sky130_fd_sc_hd__dfxtp_1
*I *440:X O *D sky130_fd_sc_hd__clkbuf_1
*CAP
1 *454:D 0.000103516
2 *440:X 4.87889e-05
3 *53:8 0.000152305
4 *454:D *131:16 0.000100477
5 *53:8 *131:16 5.27824e-05
6 *453:D *53:8 1.13812e-05
7 *24:10 *53:8 0.000115526
*RES
1 *440:X *53:8 39.5536 
2 *53:8 *454:D 39.8902 
*END

*D_NET *54 0.00159854
*CONN
*I *455:D I *D sky130_fd_sc_hd__dfxtp_1
*I *376:Y O *D sky130_fd_sc_hd__a21oi_1
*CAP
1 *455:D 0
2 *376:Y 0.000607664
3 *54:10 0.000607664
4 *54:10 *376:B1 6.23442e-05
5 *54:10 *417:A 1.59914e-05
6 *54:10 *419:A 0.000107916
7 *54:10 *69:14 2.95526e-05
8 *43:10 *54:10 0.000167402
*RES
1 *376:Y *54:10 34.5171 
2 *54:10 *455:D 23 
*END

*D_NET *55 0.00159253
*CONN
*I *393:A I *D sky130_fd_sc_hd__clkbuf_1
*I *392:X O *D sky130_fd_sc_hd__mux2_1
*CAP
1 *393:A 0.000168766
2 *392:X 0.00039869
3 *55:10 0.000567456
4 *55:10 *390:S 4.61872e-05
5 *55:10 *392:A0 5.29205e-05
6 *55:10 *392:A1 1.358e-05
7 *35:10 *393:A 5.43448e-05
8 *36:10 *393:A 0.000152995
9 *36:10 *55:10 0.000137594
*RES
1 *392:X *55:10 43.8621 
2 *55:10 *393:A 41.9564 
*END

*D_NET *56 0.000242877
*CONN
*I *395:A I *D sky130_fd_sc_hd__clkbuf_1
*I *394:X O *D sky130_fd_sc_hd__mux2_1
*CAP
1 *395:A 0.000121439
2 *394:X 0.000121439
*RES
1 *394:X *395:A 48.4236 
*END

*D_NET *57 0.000496261
*CONN
*I *397:A I *D sky130_fd_sc_hd__clkbuf_1
*I *396:X O *D sky130_fd_sc_hd__mux2_1
*CAP
1 *397:A 0
2 *396:X 0.000136469
3 *57:10 0.000136469
4 *57:10 *90:69 5.58003e-05
5 *57:10 *125:8 0.000167522
*RES
1 *396:X *57:10 40.8793 
2 *57:10 *397:A 38 
*END

*D_NET *58 0.000338316
*CONN
*I *399:A I *D sky130_fd_sc_hd__clkbuf_1
*I *398:X O *D sky130_fd_sc_hd__mux2_1
*CAP
1 *399:A 7.11903e-05
2 *398:X 7.11903e-05
3 *399:A *398:A0 0.000146822
4 *399:A *398:A1 4.9114e-05
*RES
1 *398:X *399:A 48.4236 
*END

*D_NET *59 0.00153862
*CONN
*I *401:A I *D sky130_fd_sc_hd__clkbuf_1
*I *400:X O *D sky130_fd_sc_hd__mux2_1
*CAP
1 *401:A 0
2 *400:X 0.000237793
3 *59:10 0.000237793
4 *59:10 *423:A0 0.000130968
5 *59:10 *423:S 0.000228909
6 *59:10 *464:CLK 0
7 *59:10 *90:79 0.000576109
8 *59:10 *101:29 4.6595e-05
9 *59:10 *167:14 8.04562e-05
*RES
1 *400:X *59:10 46.9486 
2 *59:10 *401:A 38 
*END

*D_NET *60 0.000394582
*CONN
*I *403:A I *D sky130_fd_sc_hd__clkbuf_1
*I *402:X O *D sky130_fd_sc_hd__mux2_1
*CAP
1 *403:A 6.80978e-05
2 *402:X 0.000107523
3 *60:8 0.000175621
4 *60:8 *493:A 0
5 *60:8 *117:8 4.334e-05
6 *60:8 *118:60 0
7 *60:8 *142:21 0
*RES
1 *402:X *60:8 40.2579 
2 *60:8 *403:A 39.0979 
*END

*D_NET *61 0.000344822
*CONN
*I *405:A I *D sky130_fd_sc_hd__clkbuf_1
*I *404:X O *D sky130_fd_sc_hd__mux2_1
*CAP
1 *405:A 3.48336e-05
2 *404:X 6.66343e-05
3 *61:8 0.000101468
4 *61:8 *91:10 4.61408e-05
5 *27:10 *405:A 7.53384e-06
6 *27:10 *61:8 8.82119e-05
*RES
1 *404:X *61:8 39.9057 
2 *61:8 *405:A 38.6214 
*END

*D_NET *62 0.000158195
*CONN
*I *407:A I *D sky130_fd_sc_hd__clkbuf_1
*I *406:X O *D sky130_fd_sc_hd__mux2_1
*CAP
1 *407:A 6.29949e-05
2 *406:X 6.29949e-05
3 *407:A *100:16 3.22051e-05
*RES
1 *406:X *407:A 47.4707 
*END

*D_NET *63 0.000151221
*CONN
*I *409:A I *D sky130_fd_sc_hd__clkbuf_1
*I *408:X O *D sky130_fd_sc_hd__mux2_1
*CAP
1 *409:A 6.59198e-05
2 *408:X 6.59198e-05
3 *409:A *160:10 1.93814e-05
*RES
1 *408:X *409:A 47.4707 
*END

*D_NET *64 0.000296527
*CONN
*I *411:A I *D sky130_fd_sc_hd__clkbuf_1
*I *410:X O *D sky130_fd_sc_hd__mux2_1
*CAP
1 *411:A 4.23615e-05
2 *410:X 0.000105902
3 *64:8 0.000148264
*RES
1 *410:X *64:8 39.9057 
2 *64:8 *411:A 38.6214 
*END

*D_NET *65 0.000855758
*CONN
*I *413:A I *D sky130_fd_sc_hd__clkbuf_1
*I *412:X O *D sky130_fd_sc_hd__mux2_1
*CAP
1 *413:A 4.23615e-05
2 *412:X 0.000340035
3 *65:10 0.000382396
4 *65:10 *379:A 0
5 *65:10 *412:A1 5.68958e-05
6 *31:8 *65:10 3.40698e-05
*RES
1 *412:X *65:10 43.8207 
2 *65:10 *413:A 38.6214 
*END

*D_NET *66 0.00235521
*CONN
*I *416:A I *D sky130_fd_sc_hd__nor2_1
*I *418:B I *D sky130_fd_sc_hd__and2_1
*I *417:B I *D sky130_fd_sc_hd__nor2_1
*I *414:X O *D sky130_fd_sc_hd__and2b_1
*CAP
1 *416:A 0.000313238
2 *418:B 4.48482e-05
3 *417:B 0.000188744
4 *414:X 0
5 *66:8 0.000408707
6 *66:6 0.000488352
7 *416:A *67:8 0.000289073
8 *417:B *376:B1 0
9 *417:B *97:25 0.000265732
10 *418:B *420:A 4.00259e-06
11 *418:B *69:6 1.24376e-05
12 *418:B *97:74 7.3441e-05
13 *418:B *98:10 4.81704e-05
14 *66:8 *376:B1 0
15 *66:8 *414:B 0
16 *66:8 *67:8 1.13812e-05
17 *66:8 *97:23 7.39034e-05
18 *66:8 *97:25 3.70094e-05
19 *42:10 *416:A 9.61662e-05
*RES
1 *414:X *66:6 38 
2 *66:6 *66:8 3.31429 
3 *66:8 *417:B 41.6664 
4 *66:8 *418:B 39.595 
5 *66:6 *416:A 44.4421 
*END

*D_NET *67 0.000716509
*CONN
*I *416:B I *D sky130_fd_sc_hd__nor2_1
*I *415:X O *D sky130_fd_sc_hd__and2b_1
*CAP
1 *416:B 0
2 *415:X 0.000197785
3 *67:8 0.000197785
4 *67:8 *96:63 2.04854e-05
5 *416:A *67:8 0.000289073
6 *66:8 *67:8 1.13812e-05
*RES
1 *415:X *67:8 42.7229 
2 *67:8 *416:B 38 
*END

*D_NET *68 0.000260215
*CONN
*I *419:A I *D sky130_fd_sc_hd__nor2_1
*I *417:Y O *D sky130_fd_sc_hd__nor2_1
*CAP
1 *419:A 4.7253e-05
2 *417:Y 4.7253e-05
3 *419:A *417:A 5.77927e-05
4 *54:10 *419:A 0.000107916
*RES
1 *417:Y *419:A 47.595 
*END

*D_NET *69 0.000834769
*CONN
*I *420:B I *D sky130_fd_sc_hd__xor2_1
*I *419:B I *D sky130_fd_sc_hd__nor2_1
*I *418:X O *D sky130_fd_sc_hd__and2_1
*CAP
1 *420:B 0
2 *419:B 0
3 *418:X 5.66165e-05
4 *69:14 0.000129565
5 *69:6 0.000186182
6 *69:6 *97:74 1.21972e-05
7 *69:6 *98:10 9.41704e-05
8 *69:14 *96:78 9.97977e-05
9 *69:14 *97:25 0.00021425
10 *418:B *69:6 1.24376e-05
11 *54:10 *69:14 2.95526e-05
*RES
1 *418:X *69:6 24.0979 
2 *69:6 *69:14 33.5836 
3 *69:14 *419:B 23 
4 *69:6 *420:B 23 
*END

*D_NET *70 0.000294768
*CONN
*I *422:A I *D sky130_fd_sc_hd__buf_2
*I *421:X O *D sky130_fd_sc_hd__or4b_1
*CAP
1 *422:A 0
2 *421:X 7.53289e-05
3 *70:8 7.53289e-05
4 *70:8 *96:14 0.00014411
5 *70:8 *101:112 0
*RES
1 *421:X *70:8 39.9057 
2 *70:8 *422:A 38 
*END

*D_NET *71 0.0129628
*CONN
*I *437:S I *D sky130_fd_sc_hd__mux2_1
*I *435:S I *D sky130_fd_sc_hd__mux2_1
*I *433:S I *D sky130_fd_sc_hd__mux2_1
*I *429:S I *D sky130_fd_sc_hd__mux2_1
*I *425:S I *D sky130_fd_sc_hd__mux2_1
*I *423:S I *D sky130_fd_sc_hd__mux2_1
*I *427:S I *D sky130_fd_sc_hd__mux2_1
*I *431:S I *D sky130_fd_sc_hd__mux2_1
*I *422:X O *D sky130_fd_sc_hd__buf_2
*CAP
1 *437:S 0.000374002
2 *435:S 0.000108408
3 *433:S 5.0732e-05
4 *429:S 1.43644e-05
5 *425:S 8.87285e-05
6 *423:S 0.000168727
7 *427:S 2.26857e-05
8 *431:S 3.87461e-05
9 *422:X 0.000805135
10 *71:92 0.000514174
11 *71:65 0.000277806
12 *71:50 0.000584163
13 *71:37 0.00102861
14 *71:18 0.00137349
15 *71:10 0.000724336
16 *71:8 0.000135827
17 *71:6 0.000805135
18 *423:S *423:A1 5.77379e-05
19 *423:S *101:12 0
20 *423:S *101:29 0.000272383
21 *423:S *167:14 0.000276716
22 *425:S *101:70 5.27173e-05