*SPEF "ieee 1481-1999"
*DESIGN "spi_slave3"
*DATE "01:33:58 Saturday June 14, 2025"
*VENDOR "The OpenROAD Project"
*PROGRAM "OpenROAD"
*VERSION "b16bda7e82721d10566ff7e2b68f1ff0be9f9e38"
*DESIGN_FLOW "NAME_SCOPE LOCAL" "PIN_CAP NONE"
*DIVIDER /
*DELIMITER :
*BUS_DELIMITER []
*T_UNIT 1 NS
*C_UNIT 1 PF
*R_UNIT 1 OHM
*L_UNIT 1 HENRY

*NAME_MAP
*3 clk
*4 cs
*5 lfsr_seed[0]
*6 lfsr_seed[10]
*7 lfsr_seed[11]
*8 lfsr_seed[12]
*9 lfsr_seed[13]
*10 lfsr_seed[14]
*11 lfsr_seed[15]
*12 lfsr_seed[1]
*13 lfsr_seed[2]
*14 lfsr_seed[3]
*15 lfsr_seed[4]
*16 lfsr_seed[5]
*17 lfsr_seed[6]
*18 lfsr_seed[7]
*19 lfsr_seed[8]
*20 lfsr_seed[9]
*21 miso
*22 mosi
*23 sclk
*24 _000_
*25 _001_
*26 _002_
*27 _003_
*28 _004_
*29 _005_
*30 _006_
*31 _007_
*32 _008_
*33 _009_
*34 _010_
*35 _011_
*36 _012_
*37 _013_
*38 _014_
*39 _015_
*40 _016_
*41 _017_
*42 _018_
*43 _019_
*44 _020_
*45 _021_
*46 _022_
*47 _023_
*48 _024_
*49 _025_
*50 _026_
*51 _027_
*52 _028_
*53 _029_
*54 _030_
*55 _031_
*56 _032_
*57 _033_
*58 _034_
*59 _035_
*60 _036_
*61 _037_
*62 _038_
*63 _039_
*64 _040_
*65 _041_
*66 _042_
*67 _043_
*68 _044_
*69 _045_
*70 _046_
*71 _047_
*72 _048_
*73 _049_
*74 _050_
*75 _051_
*76 _052_
*77 _053_
*78 _054_
*79 _055_
*80 _056_
*81 _057_
*82 _058_
*83 _059_
*84 _060_
*85 _061_
*86 _062_
*87 _063_
*88 _064_
*89 _065_
*90 _066_
*91 _067_
*92 _068_
*93 _069_
*94 _070_
*95 _071_
*96 bit_cnt\[0\]
*97 bit_cnt\[1\]
*98 bit_cnt\[2\]
*99 clknet_0_clk
*100 clknet_1_0__leaf_clk
*101 clknet_1_1__leaf_clk
*102 lfsr_inst\.lfsr_out\[0\]
*103 lfsr_inst\.lfsr_out\[10\]
*104 lfsr_inst\.lfsr_out\[11\]
*105 lfsr_inst\.lfsr_out\[12\]
*106 lfsr_inst\.lfsr_out\[13\]
*107 lfsr_inst\.lfsr_out\[14\]
*108 lfsr_inst\.lfsr_out\[15\]
*109 lfsr_inst\.lfsr_out\[1\]
*110 lfsr_inst\.lfsr_out\[2\]
*111 lfsr_inst\.lfsr_out\[3\]
*112 lfsr_inst\.lfsr_out\[4\]
*113 lfsr_inst\.lfsr_out\[5\]
*114 lfsr_inst\.lfsr_out\[6\]
*115 lfsr_inst\.lfsr_out\[7\]
*116 lfsr_inst\.lfsr_out\[8\]
*117 lfsr_inst\.lfsr_out\[9\]
*118 lfsr_inst\.load_seed
*119 net1
*120 net10
*121 net11
*122 net12
*123 net13
*124 net14
*125 net15
*126 net16
*127 net17
*128 net18
*129 net19
*130 net2
*131 net20
*132 net21
*133 net22
*134 net23
*135 net24
*136 net25
*137 net26
*138 net27
*139 net28
*140 net29
*141 net3
*142 net30
*143 net31
*144 net32
*145 net33
*146 net34
*147 net35
*148 net36
*149 net37
*150 net38
*151 net39
*152 net4
*153 net40
*154 net41
*155 net42
*156 net43
*157 net44
*158 net45
*159 net46
*160 net5
*161 net6
*162 net7
*163 net8
*164 net9
*165 seeded
*166 tx_buffer\[0\]
*167 tx_buffer\[1\]
*168 tx_buffer\[2\]
*169 tx_buffer\[3\]
*170 tx_buffer\[4\]
*171 tx_buffer\[5\]
*172 tx_buffer\[6\]
*173 tx_buffer\[7\]
*174 FILLER_0_0_103
*175 FILLER_0_0_15
*176 FILLER_0_0_23
*177 FILLER_0_0_27
*178 FILLER_0_0_29
*179 FILLER_0_0_3
*180 FILLER_0_0_34
*181 FILLER_0_0_42
*182 FILLER_0_0_48
*183 FILLER_0_0_55
*184 FILLER_0_0_57
*185 FILLER_0_0_62
*186 FILLER_0_0_69
*187 FILLER_0_0_77
*188 FILLER_0_0_83
*189 FILLER_0_0_85
*190 FILLER_0_0_97
*191 FILLER_0_10_103
*192 FILLER_0_10_22
*193 FILLER_0_10_32
*194 FILLER_0_10_50
*195 FILLER_0_10_58
*196 FILLER_0_10_62
*197 FILLER_0_10_74
*198 FILLER_0_10_83
*199 FILLER_0_10_85
*200 FILLER_0_10_93
*201 FILLER_0_11_29
*202 FILLER_0_11_57
*203 FILLER_0_11_6
*204 FILLER_0_11_65
*205 FILLER_0_11_80
*206 FILLER_0_11_92
*207 FILLER_0_12_102
*208 FILLER_0_12_12
*209 FILLER_0_12_29
*210 FILLER_0_12_3
*211 FILLER_0_12_41
*212 FILLER_0_12_58
*213 FILLER_0_12_66
*214 FILLER_0_12_71
*215 FILLER_0_12_81
*216 FILLER_0_12_85
*217 FILLER_0_13_3
*218 FILLER_0_13_38
*219 FILLER_0_13_50
*220 FILLER_0_13_57
*221 FILLER_0_13_71
*222 FILLER_0_14_11
*223 FILLER_0_14_22
*224 FILLER_0_14_3
*225 FILLER_0_14_45
*226 FILLER_0_14_83
*227 FILLER_0_15_101
*228 FILLER_0_15_25
*229 FILLER_0_15_6
*230 FILLER_0_15_89
*231 FILLER_0_16_103
*232 FILLER_0_16_11
*233 FILLER_0_16_15
*234 FILLER_0_16_27
*235 FILLER_0_16_3
*236 FILLER_0_16_57
*237 FILLER_0_16_61
*238 FILLER_0_16_65
*239 FILLER_0_16_77
*240 FILLER_0_16_83
*241 FILLER_0_16_85
*242 FILLER_0_16_97
*243 FILLER_0_17_103
*244 FILLER_0_17_15
*245 FILLER_0_17_27
*246 FILLER_0_17_29
*247 FILLER_0_17_3
*248 FILLER_0_17_37
*249 FILLER_0_17_41
*250 FILLER_0_17_46
*251 FILLER_0_17_54
*252 FILLER_0_17_57
*253 FILLER_0_17_69
*254 FILLER_0_17_76
*255 FILLER_0_17_85
*256 FILLER_0_17_97
*257 FILLER_0_1_103
*258 FILLER_0_1_15
*259 FILLER_0_1_26
*260 FILLER_0_1_3
*261 FILLER_0_1_36
*262 FILLER_0_1_57
*263 FILLER_0_1_61
*264 FILLER_0_1_74
*265 FILLER_0_1_91
*266 FILLER_0_2_3
*267 FILLER_0_2_45
*268 FILLER_0_2_82
*269 FILLER_0_3_103
*270 FILLER_0_3_23
*271 FILLER_0_3_3
*272 FILLER_0_3_37
*273 FILLER_0_4_14
*274 FILLER_0_4_24
*275 FILLER_0_4_3
*276 FILLER_0_4_37
*277 FILLER_0_4_52
*278 FILLER_0_4_70
*279 FILLER_0_4_83
*280 FILLER_0_5_34
*281 FILLER_0_5_40
*282 FILLER_0_5_6
*283 FILLER_0_5_60
*284 FILLER_0_5_79
*285 FILLER_0_5_85
*286 FILLER_0_6_101
*287 FILLER_0_6_18
*288 FILLER_0_6_35
*289 FILLER_0_6_45
*290 FILLER_0_6_6
*291 FILLER_0_6_62
*292 FILLER_0_7_35
*293 FILLER_0_7_52
*294 FILLER_0_7_6
*295 FILLER_0_8_29
*296 FILLER_0_8_3
*297 FILLER_0_8_52
*298 FILLER_0_8_82
*299 FILLER_0_9_103
*300 FILLER_0_9_21
*301 FILLER_0_9_53
*302 FILLER_0_9_6
*303 FILLER_0_9_73
*304 PHY_EDGE_ROW_0_Left_18
*305 PHY_EDGE_ROW_0_Right_0
*306 PHY_EDGE_ROW_10_Left_28
*307 PHY_EDGE_ROW_10_Right_10
*308 PHY_EDGE_ROW_11_Left_29
*309 PHY_EDGE_ROW_11_Right_11
*310 PHY_EDGE_ROW_12_Left_30
*311 PHY_EDGE_ROW_12_Right_12
*312 PHY_EDGE_ROW_13_Left_31
*313 PHY_EDGE_ROW_13_Right_13
*314 PHY_EDGE_ROW_14_Left_32
*315 PHY_EDGE_ROW_14_Right_14
*316 PHY_EDGE_ROW_15_Left_33
*317 PHY_EDGE_ROW_15_Right_15
*318 PHY_EDGE_ROW_16_Left_34
*319 PHY_EDGE_ROW_16_Right_16
*320 PHY_EDGE_ROW_17_Left_35
*321 PHY_EDGE_ROW_17_Right_17
*322 PHY_EDGE_ROW_1_Left_19
*323 PHY_EDGE_ROW_1_Right_1
*324 PHY_EDGE_ROW_2_Left_20
*325 PHY_EDGE_ROW_2_Right_2
*326 PHY_EDGE_ROW_3_Left_21
*327 PHY_EDGE_ROW_3_Right_3
*328 PHY_EDGE_ROW_4_Left_22
*329 PHY_EDGE_ROW_4_Right_4
*330 PHY_EDGE_ROW_5_Left_23
*331 PHY_EDGE_ROW_5_Right_5
*332 PHY_EDGE_ROW_6_Left_24
*333 PHY_EDGE_ROW_6_Right_6
*334 PHY_EDGE_ROW_7_Left_25
*335 PHY_EDGE_ROW_7_Right_7
*336 PHY_EDGE_ROW_8_Left_26
*337 PHY_EDGE_ROW_8_Right_8
*338 PHY_EDGE_ROW_9_Left_27
*339 PHY_EDGE_ROW_9_Right_9
*340 TAP_TAPCELL_ROW_0_36
*341 TAP_TAPCELL_ROW_0_37
*342 TAP_TAPCELL_ROW_0_38
*343 TAP_TAPCELL_ROW_10_52
*344 TAP_TAPCELL_ROW_10_53
*345 TAP_TAPCELL_ROW_11_54
*346 TAP_TAPCELL_ROW_12_55
*347 TAP_TAPCELL_ROW_12_56
*348 TAP_TAPCELL_ROW_13_57
*349 TAP_TAPCELL_ROW_14_58
*350 TAP_TAPCELL_ROW_14_59
*351 TAP_TAPCELL_ROW_15_60
*352 TAP_TAPCELL_ROW_16_61
*353 TAP_TAPCELL_ROW_16_62
*354 TAP_TAPCELL_ROW_17_63
*355 TAP_TAPCELL_ROW_17_64
*356 TAP_TAPCELL_ROW_17_65
*357 TAP_TAPCELL_ROW_1_39
*358 TAP_TAPCELL_ROW_2_40
*359 TAP_TAPCELL_ROW_2_41
*360 TAP_TAPCELL_ROW_3_42
*361 TAP_TAPCELL_ROW_4_43
*362 TAP_TAPCELL_ROW_4_44
*363 TAP_TAPCELL_ROW_5_45
*364 TAP_TAPCELL_ROW_6_46
*365 TAP_TAPCELL_ROW_6_47
*366 TAP_TAPCELL_ROW_7_48
*367 TAP_TAPCELL_ROW_8_49
*368 TAP_TAPCELL_ROW_8_50
*369 TAP_TAPCELL_ROW_9_51
*370 _072_
*371 _073_
*372 _074_
*373 _075_
*374 _076_
*375 _077_
*376 _078_
*377 _079_
*378 _080_
*379 _081_
*380 _082_
*381 _083_
*382 _084_
*383 _085_
*384 _086_
*385 _087_
*386 _088_
*387 _089_
*388 _090_
*389 _091_
*390 _092_
*391 _093_
*392 _094_
*393 _095_
*394 _096_
*395 _097_
*396 _098_
*397 _099_
*398 _100_
*399 _101_
*400 _102_
*401 _103_
*402 _104_
*403 _105_
*404 _106_
*405 _107_
*406 _108_
*407 _109_
*408 _110_
*409 _111_
*410 _112_
*411 _113_
*412 _114_
*413 _115_
*414 _116_
*415 _117_
*416 _118_
*417 _119_
*418 _120_
*419 _121_
*420 _122_
*421 _123_
*422 _124_
*423 _125_
*424 _126_
*425 _127_
*426 _128_
*427 _129_
*428 _130_
*429 _131_
*430 _132_
*431 _133_
*432 _134_
*433 _135_
*434 _136_
*435 _137_
*436 _138_
*437 _139_
*438 _140_
*439 _141_
*440 _142_
*441 _143_
*442 _144_
*443 _145_
*444 _146_
*445 _147_
*446 _148_
*447 _149_
*448 _150_
*449 _151_
*450 _152_
*451 _153_
*452 _154_
*453 _155_
*454 _156_
*455 _157_
*456 _158_
*457 _159_
*458 _160_
*459 _161_
*460 _162_
*461 _163_
*462 _164_
*463 _165_
*464 _166_
*465 _167_
*466 _168_
*467 _169_
*468 _170_
*469 _171_
*470 _172_
*471 _173_
*472 clkbuf_0_clk
*473 clkbuf_1_0__f_clk
*474 clkbuf_1_1__f_clk
*475 clkload0
*476 hold1
*477 hold10
*478 hold11
*479 hold12
*480 hold13
*481 hold14
*482 hold15
*483 hold16
*484 hold17
*485 hold18
*486 hold19
*487 hold2
*488 hold20
*489 hold21
*490 hold22
*491 hold23
*492 hold24
*493 hold25
*494 hold26
*495 hold27
*496 hold3
*497 hold4
*498 hold5
*499 hold6
*500 hold7
*501 hold8
*502 hold9
*503 input1
*504 input10
*505 input11
*506 input12
*507 input13
*508 input14
*509 input15
*510 input16
*511 input17
*512 input18
*513 input2
*514 input3
*515 input4
*516 input5
*517 input6
*518 input7
*519 input8
*520 input9
*521 output19

*PORTS
clk I
cs I
lfsr_seed[0] I
lfsr_seed[10] I
lfsr_seed[11] I
lfsr_seed[12] I
lfsr_seed[13] I
lfsr_seed[14] I
lfsr_seed[15] I
lfsr_seed[1] I
lfsr_seed[2] I
lfsr_seed[3] I
lfsr_seed[4] I
lfsr_seed[5] I
lfsr_seed[6] I
lfsr_seed[7] I
lfsr_seed[8] I
lfsr_seed[9] I
miso O
mosi I
sclk I

*D_NET *3 0.00621424
*CONN
*P clk I
*I *472:A I *D sky130_fd_sc_hd__clkbuf_16
*CAP
1 clk 0.00303656
2 *472:A 0.00303656
3 *472:A *473:A 0.000118636
4 *472:A *518:A 0
5 *472:A *519:A 2.24901e-05
6 *472:A *101:103 0
*RES
1 clk *472:A 10.8138 
*END

*D_NET *4 0.000941546
*CONN
*P cs I
*I *503:A I *D sky130_fd_sc_hd__buf_1
*CAP
1 cs 0.000453143
2 *503:A 0.000453143
3 *503:A *119:10 3.52596e-05
*RES
1 cs *503:A 11.76 
*END

*D_NET *5 0.000519962
*CONN
*P lfsr_seed[0] I
*I *513:A I *D sky130_fd_sc_hd__clkbuf_1
*CAP
1 lfsr_seed[0] 0.000234482
2 *513:A 0.000234482
3 *513:A *515:A 2.24901e-05
4 *513:A *516:A 0
5 *513:A *520:A 2.85068e-05
6 *513:A *100:18 0
*RES
1 lfsr_seed[0] *513:A 5.35677 
*END

*D_NET *6 0.00087992
*CONN
*P lfsr_seed[10] I
*I *514:A I *D sky130_fd_sc_hd__clkbuf_1
*CAP
1 lfsr_seed[10] 0.000430768
2 *514:A 0.000430768
3 *514:A *402:A1 1.83847e-05
4 *514:A *507:A 0
5 *514:A *508:A 0
*RES
1 lfsr_seed[10] *514:A 11.04 
*END

*D_NET *7 0.000530433
*CONN
*P lfsr_seed[11] I
*I *515:A I *D sky130_fd_sc_hd__clkbuf_1
*CAP
1 lfsr_seed[11] 0.000239718
2 *515:A 0.000239718
3 *515:A *516:A 2.85068e-05
4 *513:A *515:A 2.24901e-05
*RES
1 lfsr_seed[11] *515:A 6.8343 
*END

*D_NET *8 0.000658067
*CONN
*P lfsr_seed[12] I
*I *516:A I *D sky130_fd_sc_hd__clkbuf_1
*CAP
1 lfsr_seed[12] 0.000268007
2 *516:A 0.000268007
3 *516:A *468:CLK 6.41825e-06
4 *516:A *517:A 2.24901e-05
5 *516:A *518:A 0
6 *516:A *100:84 6.46368e-05
7 *513:A *516:A 0
8 *515:A *516:A 2.85068e-05
*RES
1 lfsr_seed[12] *516:A 6.63177 
*END

*D_NET *9 0.000588985
*CONN
*P lfsr_seed[13] I
*I *517:A I *D sky130_fd_sc_hd__clkbuf_1
*CAP
1 lfsr_seed[13] 0.000268994
2 *517:A 0.000268994
3 *517:A *518:A 2.85068e-05
4 *517:A *100:84 0
5 *516:A *517:A 2.24901e-05
*RES
1 lfsr_seed[13] *517:A 7.3443 
*END

*D_NET *10 0.000532146
*CONN
*P lfsr_seed[14] I
*I *518:A I *D sky130_fd_sc_hd__clkbuf_1
*CAP
1 lfsr_seed[14] 0.000235314
2 *518:A 0.000235314
3 *518:A *100:93 3.3011e-05
4 *472:A *518:A 0
5 *516:A *518:A 0
6 *517:A *518:A 2.85068e-05
*RES
1 lfsr_seed[14] *518:A 5.61177 
*END

*D_NET *11 0.000606897
*CONN
*P lfsr_seed[15] I
*I *519:A I *D sky130_fd_sc_hd__clkbuf_1
*CAP
1 lfsr_seed[15] 0.000292203
2 *519:A 0.000292203
3 *519:A *100:106 0
4 *472:A *519:A 2.24901e-05
*RES
1 lfsr_seed[15] *519:A 7.5993 
*END

*D_NET *12 0.000624926
*CONN
*P lfsr_seed[1] I
*I *520:A I *D sky130_fd_sc_hd__clkbuf_1
*CAP
1 lfsr_seed[1] 0.000298209
2 *520:A 0.000298209
3 *520:A *100:18 0
4 *520:A *100:20 0
5 *513:A *520:A 2.85068e-05
*RES
1 lfsr_seed[1] *520:A 7.5993 
*END

*D_NET *13 0.000884919
*CONN
*P lfsr_seed[2] I
*I *504:A I *D sky130_fd_sc_hd__clkbuf_1
*CAP
1 lfsr_seed[2] 0.000433267
2 *504:A 0.000433267
3 *504:A *386:A1 1.83847e-05
4 *504:A *505:A 0
*RES
1 lfsr_seed[2] *504:A 11.04 
*END

*D_NET *14 0.000788735
*CONN
*P lfsr_seed[3] I
*I *505:A I *D sky130_fd_sc_hd__clkbuf_1
*CAP
1 lfsr_seed[3] 0.000394367
2 *505:A 0.000394367
3 *504:A *505:A 0
*RES
1 lfsr_seed[3] *505:A 10.35 
*END

*D_NET *15 0.000900732
*CONN
*P lfsr_seed[4] I
*I *506:A I *D sky130_fd_sc_hd__clkbuf_1
*CAP
1 lfsr_seed[4] 0.000441483
2 *506:A 0.000441483
3 *506:A *390:A1 1.77665e-05
4 *506:A *507:A 0
*RES
1 lfsr_seed[4] *506:A 11.04 
*END

*D_NET *16 0.000788735
*CONN
*P lfsr_seed[5] I
*I *507:A I *D sky130_fd_sc_hd__clkbuf_1
*CAP
1 lfsr_seed[5] 0.000394367
2 *507:A 0.000394367
3 *506:A *507:A 0
4 *514:A *507:A 0
*RES
1 lfsr_seed[5] *507:A 10.35 
*END

*D_NET *17 0.000884146
*CONN
*P lfsr_seed[6] I
*I *508:A I *D sky130_fd_sc_hd__clkbuf_1
*CAP
1 lfsr_seed[6] 0.00043319
2 *508:A 0.00043319
3 *508:A *394:A1 1.77665e-05
4 *514:A *508:A 0
*RES
1 lfsr_seed[6] *508:A 11.04 
*END

*D_NET *18 0.000877785
*CONN
*P lfsr_seed[7] I
*I *509:A I *D sky130_fd_sc_hd__clkbuf_1
*CAP
1 lfsr_seed[7] 0.000438892
2 *509:A 0.000438892
*RES
1 lfsr_seed[7] *509:A 11.04 
*END

*D_NET *19 0.000467015
*CONN
*P lfsr_seed[8] I
*I *510:A I *D sky130_fd_sc_hd__clkbuf_1
*CAP
1 lfsr_seed[8] 0.000233508
2 *510:A 0.000233508
3 *510:A *511:A 0
*RES
1 lfsr_seed[8] *510:A 4.90503 
*END

*D_NET *20 0.000552834
*CONN
*P lfsr_seed[9] I
*I *511:A I *D sky130_fd_sc_hd__clkbuf_1
*CAP
1 lfsr_seed[9] 0.000273575
2 *511:A 0.000273575
3 *511:A *400:A1 5.68523e-06
4 *511:A *143:12 0
5 *510:A *511:A 0
*RES
1 lfsr_seed[9] *511:A 5.67003 
*END

*D_NET *21 0.000779621
*CONN
*P miso O
*I *521:X O *D sky130_fd_sc_hd__buf_2
*CAP
1 miso 0.000337624
2 *521:X 0.000337624
3 miso *512:A 7.56767e-05
4 miso *521:A 2.86975e-05
*RES
1 *521:X miso 6.37503 
*END

*D_NET *23 0.000767888
*CONN
*P sclk I
*I *512:A I *D sky130_fd_sc_hd__buf_1
*CAP
1 sclk 0.000272501
2 *512:A 0.000272501
3 *512:A *128:23 0.000147209
4 miso *512:A 7.56767e-05
*RES
1 sclk *512:A 6.43503 
*END

*D_NET *24 0.00130567
*CONN
*I *439:B I *D sky130_fd_sc_hd__or2_1
*I *453:D I *D sky130_fd_sc_hd__dfxtp_2
*I *377:Y O *D sky130_fd_sc_hd__nor2_1
*CAP
1 *439:B 0
2 *453:D 0.000279539
3 *377:Y 0.000148029
4 *24:10 0.000427569
5 *453:D *439:A 7.28465e-06
6 *453:D *453:CLK 8.37574e-05
7 *453:D *454:CLK 0.00011279
8 *453:D *454:D 9.12494e-06
9 *453:D *101:112 1.71013e-05
10 *24:10 *439:A 7.27704e-06
11 *24:10 *440:A 9.24881e-05
12 *24:10 *454:D 9.37846e-05
13 *24:10 *131:8 2.69217e-05
*RES
1 *377:Y *24:10 6.465 
2 *24:10 *453:D 8.74875 
3 *24:10 *439:B 3.6 
*END

*D_NET *25 0.00117743
*CONN
*I *456:D I *D sky130_fd_sc_hd__dfxtp_1
*I *383:X O *D sky130_fd_sc_hd__clkbuf_1
*CAP
1 *456:D 0.000468004
2 *383:X 0.000468004
3 *456:D *384:A0 3.31413e-05
4 *456:D *384:A1 9.58139e-05
5 *456:D *500:A 0.000112462
*RES
1 *383:X *456:D 10.9438 
*END

*D_NET *26 0.000250708
*CONN
*I *466:D I *D sky130_fd_sc_hd__dfxtp_1
*I *403:X O *D sky130_fd_sc_hd__clkbuf_1
*CAP
1 *466:D 9.08264e-05
2 *403:X 9.08264e-05
3 *466:D *427:A0 1.64141e-05
4 *466:D *493:A 3.80079e-05
5 *466:D *101:94 1.46331e-05
*RES
1 *403:X *466:D 8.80875 
*END

*D_NET *27 0.000947851
*CONN
*I *467:D I *D sky130_fd_sc_hd__dfxtp_1
*I *405:X O *D sky130_fd_sc_hd__clkbuf_1
*CAP
1 *467:D 0.00032537
2 *405:X 0.00032537
3 *467:D *378:B 2.69155e-05
4 *467:D *404:A1 0.000113222
5 *467:D *405:A 7.98407e-05
6 *467:D *406:A0 7.71334e-05
*RES
1 *405:X *467:D 12.39 
*END

*D_NET *28 0.000217076
*CONN
*I *468:D I *D sky130_fd_sc_hd__dfxtp_1
*I *407:X O *D sky130_fd_sc_hd__clkbuf_1
*CAP
1 *468:D 6.16459e-05
2 *407:X 6.16459e-05
3 *468:D *100:71 9.37846e-05
*RES
1 *407:X *468:D 8.46375 
*END

*D_NET *29 0.000187685
*CONN
*I *469:D I *D sky130_fd_sc_hd__dfxtp_1
*I *409:X O *D sky130_fd_sc_hd__clkbuf_1
*CAP
1 *469:D 7.04208e-05
2 *409:X 7.04208e-05
3 *469:D *408:A1 1.43717e-05
4 *469:D *100:84 3.24721e-05
*RES
1 *409:X *469:D 8.46375 
*END

*D_NET *30 0.000242744
*CONN
*I *470:D I *D sky130_fd_sc_hd__dfxtp_1
*I *411:X O *D sky130_fd_sc_hd__clkbuf_1
*CAP
1 *470:D 9.38701e-05
2 *411:X 9.38701e-05
3 *470:D *100:93 5.20082e-05
4 *470:D *100:106 2.99518e-06
5 *470:D *118:20 0
*RES
1 *411:X *470:D 8.97375 
*END

*D_NET *31 0.000226452
*CONN
*I *471:D I *D sky130_fd_sc_hd__dfxtp_1
*I *413:X O *D sky130_fd_sc_hd__clkbuf_1
*CAP
1 *471:D 8.70597e-05
2 *413:X 8.70597e-05
3 *471:D *413:A 3.79606e-05
4 *471:D *100:117 1.43717e-05
*RES
1 *413:X *471:D 8.71875 
*END

*D_NET *32 0.000224441
*CONN
*I *457:D I *D sky130_fd_sc_hd__dfxtp_1
*I *385:X O *D sky130_fd_sc_hd__clkbuf_1
*CAP
1 *457:D 0.000112221
2 *385:X 0.000112221
*RES
1 *385:X *457:D 8.80875 
*END

*D_NET *33 0.000315161
*CONN
*I *458:D I *D sky130_fd_sc_hd__dfxtp_1
*I *387:X O *D sky130_fd_sc_hd__clkbuf_1
*CAP
1 *458:D 9.09225e-05
2 *387:X 9.09225e-05
3 *458:D *100:28 2.20014e-05
4 *458:D *100:35 0.000111315
*RES
1 *387:X *458:D 4.92875 
*END

*D_NET *34 0.000658242
*CONN
*I *459:D I *D sky130_fd_sc_hd__dfxtp_1
*I *389:X O *D sky130_fd_sc_hd__clkbuf_1
*CAP
1 *459:D 0.000127206
2 *389:X 0.000127206
3 *459:D *388:A0 3.12983e-05
4 *459:D *389:A 0.000156284
5 *459:D *460:CLK 9.81401e-05
6 *459:D *502:A 7.03276e-05
7 *459:D *100:35 4.77807e-05
*RES
1 *389:X *459:D 10.4587 
*END

*D_NET *35 0.00111572
*CONN
*I *460:D I *D sky130_fd_sc_hd__dfxtp_1
*I *391:X O *D sky130_fd_sc_hd__clkbuf_1
*CAP
1 *460:D 0.000311728
2 *391:X 0.000311728
3 *460:D *390:A0 6.90254e-05
4 *460:D *390:A1 0.000309986
5 *460:D *393:A 4.89558e-05
6 *460:D *460:CLK 4.92047e-05
7 *460:D *90:32 1.50897e-05
*RES
1 *391:X *460:D 13.6838 
*END

*D_NET *36 0.00140038
*CONN
*I *461:D I *D sky130_fd_sc_hd__dfxtp_1
*I *393:X O *D sky130_fd_sc_hd__clkbuf_1
*CAP
1 *461:D 0.000327108
2 *393:X 0.000327108
3 *461:D *393:A 0.000249832
4 *461:D *461:CLK 1.43717e-05
5 *461:D *487:A 0.000197994
6 *461:D *501:A 0.000283968
*RES
1 *393:X *461:D 14.8088 
*END

*D_NET *37 0.000551946
*CONN
*I *462:D I *D sky130_fd_sc_hd__dfxtp_1
*I *395:X O *D sky130_fd_sc_hd__clkbuf_1
*CAP
1 *462:D 0.000175223
2 *395:X 0.000175223
3 *462:D *101:52 0.000201501
*RES
1 *395:X *462:D 10.1888 
*END

*D_NET *38 0.000361321
*CONN
*I *463:D I *D sky130_fd_sc_hd__dfxtp_1
*I *397:X O *D sky130_fd_sc_hd__clkbuf_1
*CAP
1 *463:D 8.5848e-05
2 *397:X 8.5848e-05
3 *463:D *396:A1 9.37846e-05
4 *463:D *463:CLK 9.58404e-05
*RES
1 *397:X *463:D 9.16875 
*END

*D_NET *39 0.000373908
*CONN
*I *464:D I *D sky130_fd_sc_hd__dfxtp_1
*I *399:X O *D sky130_fd_sc_hd__clkbuf_1
*CAP
1 *464:D 0.000178609
2 *399:X 0.000178609
3 *464:D *464:CLK 1.66897e-05
*RES
1 *399:X *464:D 9.84375 
*END

*D_NET *40 0.00061936
*CONN
*I *465:D I *D sky130_fd_sc_hd__dfxtp_1
*I *401:X O *D sky130_fd_sc_hd__clkbuf_1
*CAP
1 *465:D 0.000226256
2 *401:X 0.000226256
3 *465:D *425:A1 0
4 *465:D *482:A 2.69153e-05
5 *465:D *101:33 0.000139933
*RES
1 *401:X *465:D 10.695 
*END

*D_NET *41 0.00130766
*CONN
*I *455:CLK I *D sky130_fd_sc_hd__dfxtp_1
*I *441:Y O *D sky130_fd_sc_hd__inv_2
*CAP
1 *455:CLK 0.000535665
2 *441:Y 0.000535665
3 *455:CLK *443:D 3.54721e-05
4 *455:CLK *444:CLK 1.9872e-05
5 *455:CLK *444:D 0.00016575
6 *455:CLK *128:23 1.52352e-05
*RES
1 *441:Y *455:CLK 14.205 
*END

*D_NET *42 0.000760659
*CONN
*I *442:D I *D sky130_fd_sc_hd__dfxtp_1
*I *416:Y O *D sky130_fd_sc_hd__nor2_1
*CAP
1 *442:D 0.000338664
2 *416:Y 0.000338664
3 *442:D *416:A 8.33308e-05
*RES
1 *416:Y *442:D 12.2738 
*END

*D_NET *43 0.00149818
*CONN
*I *443:D I *D sky130_fd_sc_hd__dfxtp_1
*I *419:Y O *D sky130_fd_sc_hd__nor2_1
*CAP
1 *443:D 0.000653931
2 *419:Y 0.000653931
3 *443:D *372:S0 0
4 *443:D *455:D 0.000154843
5 *455:CLK *443:D 3.54721e-05
*RES
1 *419:Y *443:D 16.4737 
*END

*D_NET *44 0.000709062
*CONN
*I *444:D I *D sky130_fd_sc_hd__dfxtp_1
*I *420:X O *D sky130_fd_sc_hd__xor2_1
*CAP
1 *444:D 0.000257238
2 *420:X 0.000257238
3 *444:D *420:A 0
4 *444:D *98:6 2.88357e-05
5 *455:CLK *444:D 0.00016575
*RES
1 *420:X *444:D 8.18375 
*END

*D_NET *45 0.000541818
*CONN
*I *445:D I *D sky130_fd_sc_hd__dfxtp_1
*I *424:X O *D sky130_fd_sc_hd__clkbuf_1
*CAP
1 *445:D 0.000188412
2 *424:X 0.000188412
3 *445:D *445:CLK 0.000109547
4 *445:D *480:A 5.54475e-05
*RES
1 *424:X *445:D 10.4587 
*END

*D_NET *46 0.000950617
*CONN
*I *446:D I *D sky130_fd_sc_hd__dfxtp_1
*I *426:X O *D sky130_fd_sc_hd__clkbuf_1
*CAP
1 *446:D 0.000254461
2 *426:X 0.000254461
3 *446:D *406:A0 5.00903e-05
4 *446:D *426:A 6.64251e-05
5 *446:D *427:A0 0.000227721
6 *446:D *489:A 8.06949e-06
7 *446:D *101:103 8.93897e-05
*RES
1 *426:X *446:D 15.565 
*END

*D_NET *47 0.000291178
*CONN
*I *447:D I *D sky130_fd_sc_hd__dfxtp_1
*I *428:X O *D sky130_fd_sc_hd__clkbuf_1
*CAP
1 *447:D 0.000122611
2 *428:X 0.000122611
3 *447:D *428:A 0
4 *447:D *101:112 4.59555e-05
*RES
1 *428:X *447:D 9.16875 
*END

*D_NET *48 0.000327094
*CONN
*I *448:D I *D sky130_fd_sc_hd__dfxtp_1
*I *430:X O *D sky130_fd_sc_hd__clkbuf_1
*CAP
1 *448:D 0.000108773
2 *430:X 0.000108773
3 *448:D *448:CLK 0.000109547
*RES
1 *430:X *448:D 4.92875 
*END

*D_NET *49 0.000716478
*CONN
*I *449:D I *D sky130_fd_sc_hd__dfxtp_1
*I *432:X O *D sky130_fd_sc_hd__clkbuf_1
*CAP
1 *449:D 0.000280191
2 *432:X 0.000280191
3 *449:D *432:A 0.000108316
4 *449:D *449:CLK 4.77807e-05
*RES
1 *432:X *449:D 7.10375 
*END

*D_NET *50 0.000540105
*CONN
*I *450:D I *D sky130_fd_sc_hd__dfxtp_1
*I *434:X O *D sky130_fd_sc_hd__clkbuf_1
*CAP
1 *450:D 0.000163432
2 *434:X 0.000163432
3 *450:D *432:A 7.01132e-05
4 *450:D *450:CLK 6.90254e-05
5 *450:D *71:18 7.41023e-05
*RES
1 *434:X *450:D 10.1138 
*END

*D_NET *51 0.00143493
*CONN
*I *451:D I *D sky130_fd_sc_hd__dfxtp_1
*I *436:X O *D sky130_fd_sc_hd__clkbuf_1
*CAP
1 *451:D 0.000438134
2 *436:X 0.000438134
3 *451:D *435:A1 0.000133329
4 *451:D *436:A 0.000235353
5 *451:D *452:D 0.000189977
*RES
1 *436:X *451:D 15.3488 
*END

*D_NET *52 0.00165855
*CONN
*I *452:D I *D sky130_fd_sc_hd__dfxtp_1
*I *438:X O *D sky130_fd_sc_hd__clkbuf_1
*CAP
1 *452:D 0.000278634
2 *438:X 0.000278634
3 *452:D *435:A1 0.0003532
4 *452:D *436:A 5.69216e-05
5 *452:D *437:S 0.000373432
6 *452:D *118:12 0.000127754
7 *451:D *452:D 0.000189977
*RES
1 *438:X *452:D 15.2288 
*END

*D_NET *53 0.000473288
*CONN
*I *454:D I *D sky130_fd_sc_hd__dfxtp_1
*I *440:X O *D sky130_fd_sc_hd__clkbuf_1
*CAP
1 *454:D 0.000117521
2 *440:X 0.000117521
3 *454:D *439:A 0.000135336
4 *453:D *454:D 9.12494e-06
5 *24:10 *454:D 9.37846e-05
*RES
1 *440:X *454:D 9.69375 
*END

*D_NET *54 0.00132882
*CONN
*I *455:D I *D sky130_fd_sc_hd__dfxtp_1
*I *376:Y O *D sky130_fd_sc_hd__a21oi_1
*CAP
1 *455:D 0.000487884
2 *376:Y 0.000487884
3 *455:D *376:B1 6.02227e-05
4 *455:D *417:A 1.53177e-05
5 *455:D *419:A 9.57443e-05
6 *455:D *419:B 2.69217e-05
7 *443:D *455:D 0.000154843
*RES
1 *376:Y *455:D 11.54 
*END

*D_NET *55 0.00129653
*CONN
*I *393:A I *D sky130_fd_sc_hd__clkbuf_1
*I *392:X O *D sky130_fd_sc_hd__mux2_1
*CAP
1 *393:A 0.000443254
2 *392:X 0.000443254
3 *393:A *390:S 5.00203e-05
4 *393:A *392:A0 4.80058e-05
5 *393:A *392:A1 1.32102e-05
6 *460:D *393:A 4.89558e-05
7 *461:D *393:A 0.000249832
*RES
1 *392:X *393:A 14.31 
*END

*D_NET *56 0.0002209
*CONN
*I *395:A I *D sky130_fd_sc_hd__clkbuf_1
*I *394:X O *D sky130_fd_sc_hd__mux2_1
*CAP
1 *395:A 0.00011045
2 *394:X 0.00011045
*RES
1 *394:X *395:A 4.955 
*END

*D_NET *57 0.000394118
*CONN
*I *397:A I *D sky130_fd_sc_hd__clkbuf_1
*I *396:X O *D sky130_fd_sc_hd__mux2_1
*CAP
1 *397:A 0.000105142
2 *396:X 0.000105142
3 *397:A *396:A1 0.000136052
4 *397:A *90:69 4.77807e-05
*RES
1 *396:X *397:A 9.285 
*END

*D_NET *58 0.000294535
*CONN
*I *399:A I *D sky130_fd_sc_hd__clkbuf_1
*I *398:X O *D sky130_fd_sc_hd__mux2_1
*CAP
1 *399:A 6.14418e-05
2 *398:X 6.14418e-05
3 *399:A *398:A0 0.000123955
4 *399:A *398:A1 4.76966e-05
*RES
1 *398:X *399:A 4.955 
*END

*D_NET *59 0.00129894
*CONN
*I *401:A I *D sky130_fd_sc_hd__clkbuf_1
*I *400:X O *D sky130_fd_sc_hd__mux2_1
*CAP
1 *401:A 0.000179542
2 *400:X 0.000179542
3 *401:A *400:S 0.000502634
4 *401:A *423:A0 0.000116703
5 *401:A *423:S 0.000201508
6 *401:A *464:CLK 0
7 *401:A *482:A 7.54769e-05
8 *401:A *101:29 4.35348e-05
*RES
1 *400:X *401:A 13.68 
*END

*D_NET *60 0.000326026
*CONN
*I *403:A I *D sky130_fd_sc_hd__clkbuf_1
*I *402:X O *D sky130_fd_sc_hd__mux2_1
*CAP
1 *403:A 0.000142745
2 *402:X 0.000142745
3 *403:A *402:S 0
4 *403:A *425:A0 0
5 *403:A *478:A 4.05358e-05
6 *403:A *493:A 0
*RES
1 *402:X *403:A 9.63 
*END

*D_NET *61 0.000281812
*CONN
*I *405:A I *D sky130_fd_sc_hd__clkbuf_1
*I *404:X O *D sky130_fd_sc_hd__mux2_1
*CAP
1 *405:A 7.71368e-05
2 *404:X 7.71368e-05
3 *405:A *383:A 4.76979e-05
4 *467:D *405:A 7.98407e-05
*RES
1 *404:X *405:A 9.03 
*END

*D_NET *62 0.000141722
*CONN
*I *407:A I *D sky130_fd_sc_hd__clkbuf_1
*I *406:X O *D sky130_fd_sc_hd__mux2_1
*CAP
1 *407:A 5.65123e-05
2 *406:X 5.65123e-05
3 *407:A *100:16 2.86975e-05
*RES
1 *406:X *407:A 4.265 
*END

*D_NET *63 0.000135798
*CONN
*I *409:A I *D sky130_fd_sc_hd__clkbuf_1
*I *408:X O *D sky130_fd_sc_hd__mux2_1
*CAP
1 *409:A 5.84877e-05
2 *408:X 5.84877e-05
3 *409:A *406:A1 1.88227e-05
*RES
1 *408:X *409:A 4.265 
*END

*D_NET *64 0.000243317
*CONN
*I *411:A I *D sky130_fd_sc_hd__clkbuf_1
*I *410:X O *D sky130_fd_sc_hd__mux2_1
*CAP
1 *411:A 0.000121659
2 *410:X 0.000121659
*RES
1 *410:X *411:A 9.03 
*END

*D_NET *65 0.000698166
*CONN
*I *413:A I *D sky130_fd_sc_hd__clkbuf_1
*I *412:X O *D sky130_fd_sc_hd__mux2_1
*CAP
1 *413:A 0.000304753
2 *412:X 0.000304753
3 *413:A *379:A 0
4 *413:A *412:A1 5.06989e-05
5 *471:D *413:A 3.79606e-05
*RES
1 *412:X *413:A 11.865 
*END

*D_NET *66 0.00189125
*CONN
*I *416:A I *D sky130_fd_sc_hd__nor2_1
*I *418:B I *D sky130_fd_sc_hd__and2_1
*I *417:B I *D sky130_fd_sc_hd__nor2_1
*I *414:X O *D sky130_fd_sc_hd__and2b_1
*CAP
1 *416:A 0.00025202
2 *418:B 3.38405e-05
3 *417:B 0.00014135
4 *414:X 0
5 *66:8 0.000311439
6 *66:6 0.000388269
7 *416:A *416:B 0.000234499
8 *417:B *376:B1 0
9 *417:B *97:25 0.000218064
10 *418:B *420:A 4.00541e-06
11 *418:B *69:6 1.08758e-05
12 *418:B *97:74 6.82298e-05
13 *418:B *98:10 4.31246e-05
14 *66:8 *376:B1 0
15 *66:8 *414:B 0
16 *66:8 *416:B 9.12494e-06
17 *66:8 *97:23 6.21553e-05
18 *66:8 *97:25 3.09164e-05
19 *442:D *416:A 8.33308e-05
*RES
1 *414:X *66:6 3.6 
2 *66:6 *66:8 2.4 
3 *66:8 *417:B 6.255 
4 *66:8 *418:B 4.755 
5 *66:6 *416:A 8.265 
*END

*D_NET *67 0.000569973
*CONN
*I *416:B I *D sky130_fd_sc_hd__nor2_1
*I *415:X O *D sky130_fd_sc_hd__and2b_1
*CAP
1 *416:B 0.000151666
2 *415:X 0.000151666
3 *416:B *96:63 2.30184e-05
4 *416:A *416:B 0.000234499
5 *66:8 *416:B 9.12494e-06
*RES
1 *415:X *416:B 10.62 
*END

*D_NET *68 0.00021659
*CONN
*I *419:A I *D sky130_fd_sc_hd__nor2_1
*I *417:Y O *D sky130_fd_sc_hd__nor2_1
*CAP
1 *419:A 3.41606e-05
2 *417:Y 3.41606e-05
3 *419:A *417:A 5.25242e-05
4 *455:D *419:A 9.57443e-05
*RES
1 *417:Y *419:A 4.355 
*END

*D_NET *69 0.000650231
*CONN
*I *420:B I *D sky130_fd_sc_hd__xor2_1
*I *419:B I *D sky130_fd_sc_hd__nor2_1
*I *418:X O *D sky130_fd_sc_hd__and2_1
*CAP
1 *420:B 0
2 *419:B 8.75912e-05
3 *418:X 3.65327e-05
4 *69:6 0.000124124
5 *419:B *372:S0 9.47592e-05
6 *419:B *97:25 0.000175088
7 *69:6 *97:74 1.19928e-05
8 *69:6 *98:10 8.23457e-05
9 *418:B *69:6 1.08758e-05
10 *455:D *419:B 2.69217e-05
*RES
1 *418:X *69:6 2.395 
2 *69:6 *419:B 8.195 
3 *69:6 *420:B 1.6 
*END

*D_NET *70 0.000235809
*CONN
*I *422:A I *D sky130_fd_sc_hd__buf_2
*I *421:X O *D sky130_fd_sc_hd__or4b_1
*CAP
1 *422:A 5.7811e-05
2 *421:X 5.7811e-05
3 *422:A *96:14 0.000120186
4 *422:A *101:112 0
*RES
1 *421:X *422:A 8.58 
*END

*D_NET *71 0.0107201
*CONN
*I *437:S I *D sky130_fd_sc_hd__mux2_1
*I *435:S I *D sky130_fd_sc_hd__mux2_1
*I *433:S I *D sky130_fd_sc_hd__mux2_1
*I *429:S I *D sky130_fd_sc_hd__mux2_1
*I *425:S I *D sky130_fd_sc_hd__mux2_1
*I *423:S I *D sky130_fd_sc_hd__mux2_1
*I *427:S I *D sky130_fd_sc_hd__mux2_1
*I *431:S I *D sky130_fd_sc_hd__mux2_1
*I *422:X O *D sky130_fd_sc_hd__buf_2
*CAP
1 *437:S 0.000261412
2 *435:S 9.35177e-05
3 *433:S 4.02467e-05
4 *429:S 1.27877e-05
5 *425:S 7.62452e-05
6 *423:S 0.000125725
7 *427:S 2.04725e-05
8 *431:S 3.18082e-05
9 *422:X 0.000671123
10 *71:92 0.000381482
11 *71:65 0.00022359
12 *71:50 0.000426769
13 *71:37 0.000836288
14 *71:18 0.00112849
15 *71:10 0.000572309
16 *71:8 0.000782386
17 *423:S *423:A1 6.20285e-05
18 *423:S *482:A 0.000226932
19 *423:S *101:12 0
20 *423:S *101:29 0.000239813
21 *425:S *101:70 5.04954e-05
22 *431:S *431:A0 1.55253e-05
23 *431:S *432:A 4.82863e-05
24 *433:S *433:A0 1.54665e-05
25 *433:S *433:A1 2.69153e-05
26 *435:S *435:A0 8.64599e-05
27 *435:S *435:A1 2.21074e-05
28 *437:S *435:A1 0.000150912
29 *437:S *436:A 0.000546835
30 *437:S *437:A0 8.52972e-05
31 *437:S *437:A1 1.33285e-05
32 *437:S *140:8 0
33 *71:8 *370:S 0.000167758
34 *71:8 *371:C_N 0.000459866
35 *71:18 *432:A 0.000285043
36 *71:18 *450:CLK 1.94753e-05
37 *71:18 *473:A 0
38 *71:18 *100:12 0
39 *71:37 *427:A0 0.000714577
40 *71:37 *428:A 5.07262e-05
41 *71:37 *429:A1 2.69217e-05
42 *71:37 *431:A0 8.20768e-06
43 *71:37 *431:A1 0.000274432
44 *71:37 *432:A 0.000274436
45 *71:37 *492:A 7.05499e-05
46 *71:50 *372:A0 5.05981e-05
47 *71:50 *423:A1 7.28465e-06
48 *71:50 *429:A0 5.94242e-05
49 *71:50 *429:A1 6.19252e-05
50 *71:50 *482:A 8.27307e-05
51 *71:50 *490:A 0.000123535
52 *71:65 *101:70 2.86691e-05
53 *71:92 *436:A 2.98587e-05
54 *401:A *423:S 0.000201508
55 *450:D *71:18 7.41023e-05
56 *452:D *437:S 0.000373432
*RES
1 *422:X *71:8 12.33 
2 *71:8 *71:10 1.38 
3 *71:10 *71:18 10.565 
4 *71:18 *431:S 2.41 
5 *71:18 *71:37 15.525 
6 *71:37 *427:S 1.96 
7 *71:37 *71:50 6.47 
8 *71:50 *423:S 8.43 
9 *71:50 *71:65 3.83 
10 *71:65 *425:S 3.1 
11 *71:65 *429:S 1.96 
12 *71:10 *433:S 4.395 
13 *71:8 *71:92 0.615 
14 *71:92 *435:S 5.43 
15 *71:92 *437:S 11.91 
*END

*D_NET *72 0.0017125
*CONN
*I *480:A I *D sky130_fd_sc_hd__dlygate4sd3_1
*I *423:X O *D sky130_fd_sc_hd__mux2_1
*CAP
1 *480:A 0.000748561
2 *423:X 0.000748561
3 *480:A *375:A2 6.12027e-05
4 *480:A *400:A0 2.68526e-05
5 *480:A *423:A0 7.18771e-05
6 *480:A *101:12 0
7 *445:D *480:A 5.54475e-05
*RES
1 *423:X *480:A 19.02 
*END

*D_NET *73 0.00120296
*CONN
*I *426:A I *D sky130_fd_sc_hd__clkbuf_1
*I *425:X O *D sky130_fd_sc_hd__mux2_1
*CAP
1 *426:A 0.000368796
2 *425:X 0.000368796
3 *426:A *406:A0 0.000306305
4 *426:A *474:A 2.56752e-06
5 *426:A *489:A 6.31429e-05
6 *426:A *101:70 2.69272e-05