*SPEF "ieee 1481-1999"
*DESIGN "spi_slave3"
*DATE "01:34:02 Saturday June 14, 2025"
*VENDOR "The OpenROAD Project"
*PROGRAM "OpenROAD"
*VERSION "b16bda7e82721d10566ff7e2b68f1ff0be9f9e38"
*DESIGN_FLOW "NAME_SCOPE LOCAL" "PIN_CAP NONE"
*DIVIDER /
*DELIMITER :
*BUS_DELIMITER []
*T_UNIT 1 NS
*C_UNIT 1 PF
*R_UNIT 1 OHM
*L_UNIT 1 HENRY

*NAME_MAP
*3 clk
*4 cs
*5 lfsr_seed[0]
*6 lfsr_seed[10]
*7 lfsr_seed[11]
*8 lfsr_seed[12]
*9 lfsr_seed[13]
*10 lfsr_seed[14]
*11 lfsr_seed[15]
*12 lfsr_seed[1]
*13 lfsr_seed[2]
*14 lfsr_seed[3]
*15 lfsr_seed[4]
*16 lfsr_seed[5]
*17 lfsr_seed[6]
*18 lfsr_seed[7]
*19 lfsr_seed[8]
*20 lfsr_seed[9]
*21 miso
*22 mosi
*23 sclk
*24 _000_
*25 _001_
*26 _002_
*27 _003_
*28 _004_
*29 _005_
*30 _006_
*31 _007_
*32 _008_
*33 _009_
*34 _010_
*35 _011_
*36 _012_
*37 _013_
*38 _014_
*39 _015_
*40 _016_
*41 _017_
*42 _018_
*43 _019_
*44 _020_
*45 _021_
*46 _022_
*47 _023_
*48 _024_
*49 _025_
*50 _026_
*51 _027_
*52 _028_
*53 _029_
*54 _030_
*55 _031_
*56 _032_
*57 _033_
*58 _034_
*59 _035_
*60 _036_
*61 _037_
*62 _038_
*63 _039_
*64 _040_
*65 _041_
*66 _042_
*67 _043_
*68 _044_
*69 _045_
*70 _046_
*71 _047_
*72 _048_
*73 _049_
*74 _050_
*75 _051_
*76 _052_
*77 _053_
*78 _054_
*79 _055_
*80 _056_
*81 _057_
*82 _058_
*83 _059_
*84 _060_
*85 _061_
*86 _062_
*87 _063_
*88 _064_
*89 _065_
*90 _066_
*91 _067_
*92 _068_
*93 _069_
*94 _070_
*95 _071_
*96 bit_cnt\[0\]
*97 bit_cnt\[1\]
*98 bit_cnt\[2\]
*99 clknet_0_clk
*100 clknet_1_0__leaf_clk
*101 clknet_1_1__leaf_clk
*102 lfsr_inst\.lfsr_out\[0\]
*103 lfsr_inst\.lfsr_out\[10\]
*104 lfsr_inst\.lfsr_out\[11\]
*105 lfsr_inst\.lfsr_out\[12\]
*106 lfsr_inst\.lfsr_out\[13\]
*107 lfsr_inst\.lfsr_out\[14\]
*108 lfsr_inst\.lfsr_out\[15\]
*109 lfsr_inst\.lfsr_out\[1\]
*110 lfsr_inst\.lfsr_out\[2\]
*111 lfsr_inst\.lfsr_out\[3\]
*112 lfsr_inst\.lfsr_out\[4\]
*113 lfsr_inst\.lfsr_out\[5\]
*114 lfsr_inst\.lfsr_out\[6\]
*115 lfsr_inst\.lfsr_out\[7\]
*116 lfsr_inst\.lfsr_out\[8\]
*117 lfsr_inst\.lfsr_out\[9\]
*118 lfsr_inst\.load_seed
*119 net1
*120 net10
*121 net11
*122 net12
*123 net13
*124 net14
*125 net15
*126 net16
*127 net17
*128 net18
*129 net19
*130 net2
*131 net20
*132 net21
*133 net22
*134 net23
*135 net24
*136 net25
*137 net26
*138 net27
*139 net28
*140 net29
*141 net3
*142 net30
*143 net31
*144 net32
*145 net33
*146 net34
*147 net35
*148 net36
*149 net37
*150 net38
*151 net39
*152 net4
*153 net40
*154 net41
*155 net42
*156 net43
*157 net44
*158 net45
*159 net46
*160 net5
*161 net6
*162 net7
*163 net8
*164 net9
*165 seeded
*166 tx_buffer\[0\]
*167 tx_buffer\[1\]
*168 tx_buffer\[2\]
*169 tx_buffer\[3\]
*170 tx_buffer\[4\]
*171 tx_buffer\[5\]
*172 tx_buffer\[6\]
*173 tx_buffer\[7\]
*174 FILLER_0_0_103
*175 FILLER_0_0_15
*176 FILLER_0_0_23
*177 FILLER_0_0_27
*178 FILLER_0_0_29
*179 FILLER_0_0_3
*180 FILLER_0_0_34
*181 FILLER_0_0_42
*182 FILLER_0_0_48
*183 FILLER_0_0_55
*184 FILLER_0_0_57
*185 FILLER_0_0_62
*186 FILLER_0_0_69
*187 FILLER_0_0_77
*188 FILLER_0_0_83
*189 FILLER_0_0_85
*190 FILLER_0_0_97
*191 FILLER_0_10_103
*192 FILLER_0_10_22
*193 FILLER_0_10_32
*194 FILLER_0_10_50
*195 FILLER_0_10_58
*196 FILLER_0_10_62
*197 FILLER_0_10_74
*198 FILLER_0_10_83
*199 FILLER_0_10_85
*200 FILLER_0_10_93
*201 FILLER_0_11_29
*202 FILLER_0_11_57
*203 FILLER_0_11_6
*204 FILLER_0_11_65
*205 FILLER_0_11_80
*206 FILLER_0_11_92
*207 FILLER_0_12_102
*208 FILLER_0_12_12
*209 FILLER_0_12_29
*210 FILLER_0_12_3
*211 FILLER_0_12_41
*212 FILLER_0_12_58
*213 FILLER_0_12_66
*214 FILLER_0_12_71
*215 FILLER_0_12_81
*216 FILLER_0_12_85
*217 FILLER_0_13_3
*218 FILLER_0_13_38
*219 FILLER_0_13_50
*220 FILLER_0_13_57
*221 FILLER_0_13_71
*222 FILLER_0_14_11
*223 FILLER_0_14_22
*224 FILLER_0_14_3
*225 FILLER_0_14_45
*226 FILLER_0_14_83
*227 FILLER_0_15_101
*228 FILLER_0_15_25
*229 FILLER_0_15_6
*230 FILLER_0_15_89
*231 FILLER_0_16_103
*232 FILLER_0_16_11
*233 FILLER_0_16_15
*234 FILLER_0_16_27
*235 FILLER_0_16_3
*236 FILLER_0_16_57
*237 FILLER_0_16_61
*238 FILLER_0_16_65
*239 FILLER_0_16_77
*240 FILLER_0_16_83
*241 FILLER_0_16_85
*242 FILLER_0_16_97
*243 FILLER_0_17_103
*244 FILLER_0_17_15
*245 FILLER_0_17_27
*246 FILLER_0_17_29
*247 FILLER_0_17_3
*248 FILLER_0_17_37
*249 FILLER_0_17_41
*250 FILLER_0_17_46
*251 FILLER_0_17_54
*252 FILLER_0_17_57
*253 FILLER_0_17_69
*254 FILLER_0_17_76
*255 FILLER_0_17_85
*256 FILLER_0_17_97
*257 FILLER_0_1_103
*258 FILLER_0_1_15
*259 FILLER_0_1_26
*260 FILLER_0_1_3
*261 FILLER_0_1_36
*262 FILLER_0_1_57
*263 FILLER_0_1_61
*264 FILLER_0_1_74
*265 FILLER_0_1_91
*266 FILLER_0_2_3
*267 FILLER_0_2_45
*268 FILLER_0_2_82
*269 FILLER_0_3_103
*270 FILLER_0_3_23
*271 FILLER_0_3_3
*272 FILLER_0_3_37
*273 FILLER_0_4_14
*274 FILLER_0_4_24
*275 FILLER_0_4_3
*276 FILLER_0_4_37
*277 FILLER_0_4_52
*278 FILLER_0_4_70
*279 FILLER_0_4_83
*280 FILLER_0_5_34
*281 FILLER_0_5_40
*282 FILLER_0_5_6
*283 FILLER_0_5_60
*284 FILLER_0_5_79
*285 FILLER_0_5_85
*286 FILLER_0_6_101
*287 FILLER_0_6_18
*288 FILLER_0_6_35
*289 FILLER_0_6_45
*290 FILLER_0_6_6
*291 FILLER_0_6_62
*292 FILLER_0_7_35
*293 FILLER_0_7_52
*294 FILLER_0_7_6
*295 FILLER_0_8_29
*296 FILLER_0_8_3
*297 FILLER_0_8_52
*298 FILLER_0_8_82
*299 FILLER_0_9_103
*300 FILLER_0_9_21
*301 FILLER_0_9_53
*302 FILLER_0_9_6
*303 FILLER_0_9_73
*304 PHY_EDGE_ROW_0_Left_18
*305 PHY_EDGE_ROW_0_Right_0
*306 PHY_EDGE_ROW_10_Left_28
*307 PHY_EDGE_ROW_10_Right_10
*308 PHY_EDGE_ROW_11_Left_29
*309 PHY_EDGE_ROW_11_Right_11
*310 PHY_EDGE_ROW_12_Left_30
*311 PHY_EDGE_ROW_12_Right_12
*312 PHY_EDGE_ROW_13_Left_31
*313 PHY_EDGE_ROW_13_Right_13
*314 PHY_EDGE_ROW_14_Left_32
*315 PHY_EDGE_ROW_14_Right_14
*316 PHY_EDGE_ROW_15_Left_33
*317 PHY_EDGE_ROW_15_Right_15
*318 PHY_EDGE_ROW_16_Left_34
*319 PHY_EDGE_ROW_16_Right_16
*320 PHY_EDGE_ROW_17_Left_35
*321 PHY_EDGE_ROW_17_Right_17
*322 PHY_EDGE_ROW_1_Left_19
*323 PHY_EDGE_ROW_1_Right_1
*324 PHY_EDGE_ROW_2_Left_20
*325 PHY_EDGE_ROW_2_Right_2
*326 PHY_EDGE_ROW_3_Left_21
*327 PHY_EDGE_ROW_3_Right_3
*328 PHY_EDGE_ROW_4_Left_22
*329 PHY_EDGE_ROW_4_Right_4
*330 PHY_EDGE_ROW_5_Left_23
*331 PHY_EDGE_ROW_5_Right_5
*332 PHY_EDGE_ROW_6_Left_24
*333 PHY_EDGE_ROW_6_Right_6
*334 PHY_EDGE_ROW_7_Left_25
*335 PHY_EDGE_ROW_7_Right_7
*336 PHY_EDGE_ROW_8_Left_26
*337 PHY_EDGE_ROW_8_Right_8
*338 PHY_EDGE_ROW_9_Left_27
*339 PHY_EDGE_ROW_9_Right_9
*340 TAP_TAPCELL_ROW_0_36
*341 TAP_TAPCELL_ROW_0_37
*342 TAP_TAPCELL_ROW_0_38
*343 TAP_TAPCELL_ROW_10_52
*344 TAP_TAPCELL_ROW_10_53
*345 TAP_TAPCELL_ROW_11_54
*346 TAP_TAPCELL_ROW_12_55
*347 TAP_TAPCELL_ROW_12_56
*348 TAP_TAPCELL_ROW_13_57
*349 TAP_TAPCELL_ROW_14_58
*350 TAP_TAPCELL_ROW_14_59
*351 TAP_TAPCELL_ROW_15_60
*352 TAP_TAPCELL_ROW_16_61
*353 TAP_TAPCELL_ROW_16_62
*354 TAP_TAPCELL_ROW_17_63
*355 TAP_TAPCELL_ROW_17_64
*356 TAP_TAPCELL_ROW_17_65
*357 TAP_TAPCELL_ROW_1_39
*358 TAP_TAPCELL_ROW_2_40
*359 TAP_TAPCELL_ROW_2_41
*360 TAP_TAPCELL_ROW_3_42
*361 TAP_TAPCELL_ROW_4_43
*362 TAP_TAPCELL_ROW_4_44
*363 TAP_TAPCELL_ROW_5_45
*364 TAP_TAPCELL_ROW_6_46
*365 TAP_TAPCELL_ROW_6_47
*366 TAP_TAPCELL_ROW_7_48
*367 TAP_TAPCELL_ROW_8_49
*368 TAP_TAPCELL_ROW_8_50
*369 TAP_TAPCELL_ROW_9_51
*370 _072_
*371 _073_
*372 _074_
*373 _075_
*374 _076_
*375 _077_
*376 _078_
*377 _079_
*378 _080_
*379 _081_
*380 _082_
*381 _083_
*382 _084_
*383 _085_
*384 _086_
*385 _087_
*386 _088_
*387 _089_
*388 _090_
*389 _091_
*390 _092_
*391 _093_
*392 _094_
*393 _095_
*394 _096_
*395 _097_
*396 _098_
*397 _099_
*398 _100_
*399 _101_
*400 _102_
*401 _103_
*402 _104_
*403 _105_
*404 _106_
*405 _107_
*406 _108_
*407 _109_
*408 _110_
*409 _111_
*410 _112_
*411 _113_
*412 _114_
*413 _115_
*414 _116_
*415 _117_
*416 _118_
*417 _119_
*418 _120_
*419 _121_
*420 _122_
*421 _123_
*422 _124_
*423 _125_
*424 _126_
*425 _127_
*426 _128_
*427 _129_
*428 _130_
*429 _131_
*430 _132_
*431 _133_
*432 _134_
*433 _135_
*434 _136_
*435 _137_
*436 _138_
*437 _139_
*438 _140_
*439 _141_
*440 _142_
*441 _143_
*442 _144_
*443 _145_
*444 _146_
*445 _147_
*446 _148_
*447 _149_
*448 _150_
*449 _151_
*450 _152_
*451 _153_
*452 _154_
*453 _155_
*454 _156_
*455 _157_
*456 _158_
*457 _159_
*458 _160_
*459 _161_
*460 _162_
*461 _163_
*462 _164_
*463 _165_
*464 _166_
*465 _167_
*466 _168_
*467 _169_
*468 _170_
*469 _171_
*470 _172_
*471 _173_
*472 clkbuf_0_clk
*473 clkbuf_1_0__f_clk
*474 clkbuf_1_1__f_clk
*475 clkload0
*476 hold1
*477 hold10
*478 hold11
*479 hold12
*480 hold13
*481 hold14
*482 hold15
*483 hold16
*484 hold17
*485 hold18
*486 hold19
*487 hold2
*488 hold20
*489 hold21
*490 hold22
*491 hold23
*492 hold24
*493 hold25
*494 hold26
*495 hold27
*496 hold3
*497 hold4
*498 hold5
*499 hold6
*500 hold7
*501 hold8
*502 hold9
*503 input1
*504 input10
*505 input11
*506 input12
*507 input13
*508 input14
*509 input15
*510 input16
*511 input17
*512 input18
*513 input2
*514 input3
*515 input4
*516 input5
*517 input6
*518 input7
*519 input8
*520 input9
*521 output19

*PORTS
clk I
cs I
lfsr_seed[0] I
lfsr_seed[10] I
lfsr_seed[11] I
lfsr_seed[12] I
lfsr_seed[13] I
lfsr_seed[14] I
lfsr_seed[15] I
lfsr_seed[1] I
lfsr_seed[2] I
lfsr_seed[3] I
lfsr_seed[4] I
lfsr_seed[5] I
lfsr_seed[6] I
lfsr_seed[7] I
lfsr_seed[8] I
lfsr_seed[9] I
miso O
mosi I
sclk I

*D_NET *3 0.00682838
*CONN
*P clk I
*I *472:A I *D sky130_fd_sc_hd__clkbuf_16
*CAP
1 clk 0.00333282
2 *472:A 0.00333282
3 *472:A *473:A 0.000140137
4 *472:A *518:A 0
5 *472:A *519:A 2.25951e-05
6 *472:A *101:103 0
*RES
1 clk *472:A 31.0744 
*END

*D_NET *4 0.00100394
*CONN
*P cs I
*I *503:A I *D sky130_fd_sc_hd__buf_1
*CAP
1 cs 0.000483521
2 *503:A 0.000483521
3 *503:A *119:10 3.69008e-05
*RES
1 cs *503:A 23.5143 
*END

*D_NET *5 0.000551674
*CONN
*P lfsr_seed[0] I
*I *513:A I *D sky130_fd_sc_hd__clkbuf_1
*CAP
1 lfsr_seed[0] 0.000250155
2 *513:A 0.000250155
3 *513:A *515:A 2.25951e-05
4 *513:A *516:A 0
5 *513:A *520:A 2.87684e-05
6 *513:A *100:18 0
*RES
1 lfsr_seed[0] *513:A 18.73 
*END

*D_NET *6 0.00094414
*CONN
*P lfsr_seed[10] I
*I *514:A I *D sky130_fd_sc_hd__clkbuf_1
*CAP
1 lfsr_seed[10] 0.000462425
2 *514:A 0.000462425
3 *514:A *402:A1 1.92905e-05
4 *514:A *507:A 0
5 *514:A *508:A 0
*RES
1 lfsr_seed[10] *514:A 22.6571 
*END

*D_NET *7 0.000568651
*CONN
*P lfsr_seed[11] I
*I *515:A I *D sky130_fd_sc_hd__clkbuf_1
*CAP
1 lfsr_seed[11] 0.000258644
2 *515:A 0.000258644
3 *515:A *516:A 2.87684e-05
4 *513:A *515:A 2.25951e-05
*RES
1 lfsr_seed[11] *515:A 20.4803 
*END

*D_NET *8 0.000704122
*CONN
*P lfsr_seed[12] I
*I *516:A I *D sky130_fd_sc_hd__clkbuf_1
*CAP
1 lfsr_seed[12] 0.00029174
2 *516:A 0.00029174
3 *516:A *468:CLK 6.07037e-06
4 *516:A *517:A 2.25951e-05
5 *516:A *518:A 0
6 *516:A *100:84 6.3209e-05
7 *513:A *516:A 0
8 *515:A *516:A 2.87684e-05
*RES
1 lfsr_seed[12] *516:A 20.2479 
*END

*D_NET *9 0.000631115
*CONN
*P lfsr_seed[13] I
*I *517:A I *D sky130_fd_sc_hd__clkbuf_1
*CAP
1 lfsr_seed[13] 0.000289876
2 *517:A 0.000289876
3 *517:A *518:A 2.87684e-05
4 *517:A *100:84 0
5 *516:A *517:A 2.25951e-05
*RES
1 lfsr_seed[13] *517:A 21.0874 
*END

*D_NET *10 0.000564545
*CONN
*P lfsr_seed[14] I
*I *518:A I *D sky130_fd_sc_hd__clkbuf_1
*CAP
1 lfsr_seed[14] 0.000251909
2 *518:A 0.000251909
3 *518:A *100:93 3.19585e-05
4 *472:A *518:A 0
5 *516:A *518:A 0
6 *517:A *518:A 2.87684e-05
*RES
1 lfsr_seed[14] *518:A 19.0336 
*END

*D_NET *11 0.000649219
*CONN
*P lfsr_seed[15] I
*I *519:A I *D sky130_fd_sc_hd__clkbuf_1
*CAP
1 lfsr_seed[15] 0.000313312
2 *519:A 0.000313312
3 *519:A *100:106 0
4 *472:A *519:A 2.25951e-05
*RES
1 lfsr_seed[15] *519:A 21.391 
*END

*D_NET *12 0.000672993
*CONN
*P lfsr_seed[1] I
*I *520:A I *D sky130_fd_sc_hd__clkbuf_1
*CAP
1 lfsr_seed[1] 0.000322112
2 *520:A 0.000322112
3 *520:A *100:18 0
4 *520:A *100:20 0
5 *513:A *520:A 2.87684e-05
*RES
1 lfsr_seed[1] *520:A 21.391 
*END

*D_NET *13 0.000948186
*CONN
*P lfsr_seed[2] I
*I *504:A I *D sky130_fd_sc_hd__clkbuf_1
*CAP
1 lfsr_seed[2] 0.000464448
2 *504:A 0.000464448
3 *504:A *386:A1 1.92905e-05
4 *504:A *505:A 0
*RES
1 lfsr_seed[2] *504:A 22.6571 
*END

*D_NET *14 0.000845334
*CONN
*P lfsr_seed[3] I
*I *505:A I *D sky130_fd_sc_hd__clkbuf_1
*CAP
1 lfsr_seed[3] 0.000422667
2 *505:A 0.000422667
3 *504:A *505:A 0
*RES
1 lfsr_seed[3] *505:A 21.8357 
*END

*D_NET *15 0.000968863
*CONN
*P lfsr_seed[4] I
*I *506:A I *D sky130_fd_sc_hd__clkbuf_1
*CAP
1 lfsr_seed[4] 0.000475275
2 *506:A 0.000475275
3 *506:A *390:A1 1.83136e-05
4 *506:A *507:A 0
*RES
1 lfsr_seed[4] *506:A 22.6571 
*END

*D_NET *16 0.000845334
*CONN
*P lfsr_seed[5] I
*I *507:A I *D sky130_fd_sc_hd__clkbuf_1
*CAP
1 lfsr_seed[5] 0.000422667
2 *507:A 0.000422667
3 *506:A *507:A 0
4 *514:A *507:A 0
*RES
1 lfsr_seed[5] *507:A 21.8357 
*END

*D_NET *17 0.000946543
*CONN
*P lfsr_seed[6] I
*I *508:A I *D sky130_fd_sc_hd__clkbuf_1
*CAP
1 lfsr_seed[6] 0.000464114
2 *508:A 0.000464114
3 *508:A *394:A1 1.83136e-05
4 *514:A *508:A 0
*RES
1 lfsr_seed[6] *508:A 22.6571 
*END

*D_NET *18 0.000941071
*CONN
*P lfsr_seed[7] I
*I *509:A I *D sky130_fd_sc_hd__clkbuf_1
*CAP
1 lfsr_seed[7] 0.000470535
2 *509:A 0.000470535
*RES
1 lfsr_seed[7] *509:A 22.6571 
*END

*D_NET *19 0.000498939
*CONN
*P lfsr_seed[8] I
*I *510:A I *D sky130_fd_sc_hd__clkbuf_1
*CAP
1 lfsr_seed[8] 0.000249469
2 *510:A 0.000249469
3 *510:A *511:A 0
*RES
1 lfsr_seed[8] *510:A 18.1949 
*END

*D_NET *20 0.000590804
*CONN
*P lfsr_seed[9] I
*I *511:A I *D sky130_fd_sc_hd__clkbuf_1
*CAP
1 lfsr_seed[9] 0.00029276
2 *511:A 0.00029276
3 *511:A *400:A1 5.28442e-06
4 *511:A *143:12 0
5 *510:A *511:A 0
*RES
1 lfsr_seed[9] *511:A 19.1056 
*END

*D_NET *21 0.000848139
*CONN
*P miso O
*I *521:X O *D sky130_fd_sc_hd__buf_2
*CAP
1 miso 0.000371429
2 *521:X 0.000371429
3 miso *512:A 7.44148e-05
4 miso *521:A 3.08664e-05
*RES
1 *521:X miso 19.9449 
*END

*D_NET *23 0.000832009
*CONN
*P sclk I
*I *512:A I *D sky130_fd_sc_hd__buf_1
*CAP
1 sclk 0.000297869
2 *512:A 0.000297869
3 *512:A *128:23 0.000161856
4 miso *512:A 7.44148e-05
*RES
1 sclk *512:A 20.0163 
*END

*D_NET *24 0.00144168
*CONN
*I *439:B I *D sky130_fd_sc_hd__or2_1
*I *453:D I *D sky130_fd_sc_hd__dfxtp_2
*I *377:Y O *D sky130_fd_sc_hd__nor2_1
*CAP
1 *439:B 0
2 *453:D 0.000311412
3 *377:Y 0.000166479
4 *24:10 0.000477891
5 *453:D *439:A 6.94441e-06
6 *453:D *453:CLK 9.33321e-05
7 *453:D *454:CLK 0.000117101
8 *453:D *454:D 1.00887e-05
9 *453:D *101:112 1.76135e-05
10 *24:10 *439:A 6.93626e-06
11 *24:10 *440:A 0.000101915
12 *24:10 *454:D 0.000103437
13 *24:10 *131:8 2.85321e-05
*RES
1 *377:Y *24:10 17.2107 
2 *24:10 *453:D 19.9295 
3 *24:10 *439:B 13.8 
*END

*D_NET *25 0.00126883
*CONN
*I *456:D I *D sky130_fd_sc_hd__dfxtp_1
*I *383:X O *D sky130_fd_sc_hd__clkbuf_1
*CAP
1 *456:D 0.000512004
2 *383:X 0.000512004
3 *456:D *384:A0 3.21345e-05
4 *456:D *384:A1 9.31004e-05
5 *456:D *500:A 0.000119584
*RES
1 *383:X *456:D 27.8188 
*END

*D_NET *26 0.000276291
*CONN
*I *466:D I *D sky130_fd_sc_hd__dfxtp_1
*I *403:X O *D sky130_fd_sc_hd__clkbuf_1
*CAP
1 *466:D 0.000103406
2 *403:X 0.000103406
3 *466:D *427:A0 1.6815e-05
4 *466:D *493:A 3.85254e-05
5 *466:D *101:94 1.41376e-05
*RES
1 *403:X *466:D 29.5152 
*END

*D_NET *27 0.00107024
*CONN
*I *467:D I *D sky130_fd_sc_hd__dfxtp_1
*I *405:X O *D sky130_fd_sc_hd__clkbuf_1
*CAP
1 *467:D 0.000372122
2 *405:X 0.000372122
3 *467:D *378:B 2.53855e-05
4 *467:D *404:A1 0.000124749
5 *467:D *405:A 8.69511e-05
6 *467:D *406:A0 8.89117e-05
*RES
1 *405:X *467:D 33.7786 
*END

*D_NET *28 0.000242294
*CONN
*I *468:D I *D sky130_fd_sc_hd__dfxtp_1
*I *407:X O *D sky130_fd_sc_hd__clkbuf_1
*CAP
1 *468:D 6.94284e-05
2 *407:X 6.94284e-05
3 *468:D *100:71 0.000103437
*RES
1 *407:X *468:D 29.1045 
*END

*D_NET *29 0.00020982
*CONN
*I *469:D I *D sky130_fd_sc_hd__dfxtp_1
*I *409:X O *D sky130_fd_sc_hd__clkbuf_1
*CAP
1 *469:D 8.11985e-05
2 *409:X 8.11985e-05
3 *469:D *408:A1 1.64343e-05
4 *469:D *100:84 3.09892e-05
*RES
1 *409:X *469:D 29.1045 
*END

*D_NET *30 0.000263181
*CONN
*I *470:D I *D sky130_fd_sc_hd__dfxtp_1
*I *411:X O *D sky130_fd_sc_hd__clkbuf_1
*CAP
1 *470:D 0.000105092
2 *411:X 0.000105092
3 *470:D *100:93 5.01644e-05
4 *470:D *100:106 2.83284e-06
5 *470:D *118:20 0
*RES
1 *411:X *470:D 29.7116 
*END

*D_NET *31 0.000251389
*CONN
*I *471:D I *D sky130_fd_sc_hd__dfxtp_1
*I *413:X O *D sky130_fd_sc_hd__clkbuf_1
*CAP
1 *471:D 9.95495e-05
2 *413:X 9.95495e-05
3 *471:D *413:A 3.58558e-05
4 *471:D *100:117 1.64343e-05
*RES
1 *413:X *471:D 29.408 
*END

*D_NET *32 0.000247155
*CONN
*I *457:D I *D sky130_fd_sc_hd__dfxtp_1
*I *385:X O *D sky130_fd_sc_hd__clkbuf_1
*CAP
1 *457:D 0.000123578
2 *385:X 0.000123578
*RES
1 *385:X *457:D 29.5152 
*END

*D_NET *33 0.000348262
*CONN
*I *458:D I *D sky130_fd_sc_hd__dfxtp_1
*I *387:X O *D sky130_fd_sc_hd__clkbuf_1
*CAP
1 *458:D 9.79217e-05
2 *387:X 9.79217e-05
3 *458:D *100:28 2.36643e-05
4 *458:D *100:35 0.000128755
*RES
1 *387:X *458:D 20.658 
*END

*D_NET *34 0.000739377
*CONN
*I *459:D I *D sky130_fd_sc_hd__dfxtp_1
*I *389:X O *D sky130_fd_sc_hd__clkbuf_1
*CAP
1 *459:D 0.000145712
2 *389:X 0.000145712
3 *459:D *388:A0 3.0089e-05
4 *459:D *389:A 0.000172285
5 *459:D *460:CLK 0.00011316
6 *459:D *502:A 7.74135e-05
7 *459:D *100:35 5.50052e-05
*RES
1 *389:X *459:D 31.4795 
*END

*D_NET *35 0.00123555
*CONN
*I *460:D I *D sky130_fd_sc_hd__dfxtp_1
*I *391:X O *D sky130_fd_sc_hd__clkbuf_1
*CAP
1 *460:D 0.000350409
2 *391:X 0.000350409
3 *460:D *390:A0 7.58841e-05
4 *460:D *390:A1 0.000342133
5 *460:D *393:A 5.2254e-05
6 *460:D *460:CLK 4.69774e-05
7 *460:D *90:32 1.74816e-05
*RES
1 *391:X *460:D 35.3187 
*END

*D_NET *36 0.00154993
*CONN
*I *461:D I *D sky130_fd_sc_hd__dfxtp_1
*I *393:X O *D sky130_fd_sc_hd__clkbuf_1
*CAP
1 *461:D 0.00036587
2 *393:X 0.00036587
3 *461:D *393:A 0.000270929
4 *461:D *461:CLK 1.64343e-05
5 *461:D *487:A 0.000217716
6 *461:D *501:A 0.000313113
*RES
1 *393:X *461:D 36.658 
*END

*D_NET *37 0.000618299
*CONN
*I *462:D I *D sky130_fd_sc_hd__dfxtp_1
*I *395:X O *D sky130_fd_sc_hd__clkbuf_1
*CAP
1 *462:D 0.000192734
2 *395:X 0.000192734
3 *462:D *101:52 0.000232832
*RES
1 *395:X *462:D 31.158 
*END

*D_NET *38 0.000400229
*CONN
*I *463:D I *D sky130_fd_sc_hd__dfxtp_1
*I *397:X O *D sky130_fd_sc_hd__clkbuf_1
*CAP
1 *463:D 9.50719e-05
2 *397:X 9.50719e-05
3 *463:D *396:A1 0.000103437
4 *463:D *463:CLK 0.000106648
*RES
1 *397:X *463:D 29.9438 
*END

*D_NET *39 0.000407062
*CONN
*I *464:D I *D sky130_fd_sc_hd__dfxtp_1
*I *399:X O *D sky130_fd_sc_hd__clkbuf_1
*CAP
1 *464:D 0.00019536
2 *399:X 0.00019536
3 *464:D *464:CLK 1.63414e-05
*RES
1 *399:X *464:D 30.7473 
*END

*D_NET *40 0.000690742
*CONN
*I *465:D I *D sky130_fd_sc_hd__dfxtp_1
*I *401:X O *D sky130_fd_sc_hd__clkbuf_1
*CAP
1 *465:D 0.000255443
2 *401:X 0.000255443
3 *465:D *425:A1 0
4 *465:D *482:A 2.85234e-05
5 *465:D *101:33 0.000151333
*RES
1 *401:X *465:D 31.7607 
*END

*D_NET *41 0.00147095
*CONN
*I *455:CLK I *D sky130_fd_sc_hd__dfxtp_1
*I *441:Y O *D sky130_fd_sc_hd__inv_2
*CAP
1 *455:CLK 0.000613388
2 *441:Y 0.000613388
3 *455:CLK *443:D 3.54498e-05
4 *455:CLK *444:CLK 2.07878e-05
5 *455:CLK *444:D 0.000171996
6 *455:CLK *128:23 1.59373e-05
*RES
1 *441:Y *455:CLK 35.9393 
*END

*D_NET *42 0.000837116
*CONN
*I *442:D I *D sky130_fd_sc_hd__dfxtp_1
*I *416:Y O *D sky130_fd_sc_hd__nor2_1
*CAP
1 *442:D 0.000370776
2 *416:Y 0.000370776
3 *442:D *416:A 9.55638e-05
*RES
1 *416:Y *442:D 33.6402 
*END

*D_NET *43 0.00166036
*CONN
*I *443:D I *D sky130_fd_sc_hd__dfxtp_1
*I *419:Y O *D sky130_fd_sc_hd__nor2_1
*CAP
1 *443:D 0.000728951
2 *419:Y 0.000728951
3 *443:D *372:S0 0
4 *443:D *455:D 0.00016701
5 *455:CLK *443:D 3.54498e-05
*RES
1 *419:Y *443:D 38.6402 
*END

*D_NET *44 0.000767823
*CONN
*I *444:D I *D sky130_fd_sc_hd__dfxtp_1
*I *420:X O *D sky130_fd_sc_hd__xor2_1
*CAP
1 *444:D 0.000282359
2 *420:X 0.000282359
3 *444:D *420:A 0
4 *444:D *98:6 3.11088e-05
5 *455:CLK *444:D 0.000171996
*RES
1 *420:X *444:D 24.533 
*END

*D_NET *45 0.000601743
*CONN
*I *445:D I *D sky130_fd_sc_hd__dfxtp_1
*I *424:X O *D sky130_fd_sc_hd__clkbuf_1
*CAP
1 *445:D 0.000211351
2 *424:X 0.000211351
3 *445:D *445:CLK 0.00012626
4 *445:D *480:A 5.2781e-05
*RES
1 *424:X *445:D 31.4795 
*END

*D_NET *46 0.00108953
*CONN
*I *446:D I *D sky130_fd_sc_hd__dfxtp_1
*I *426:X O *D sky130_fd_sc_hd__clkbuf_1
*CAP
1 *446:D 0.000297975
2 *426:X 0.000297975
3 *446:D *406:A0 5.51649e-05
4 *446:D *426:A 7.63254e-05
5 *446:D *427:A0 0.00025852
6 *446:D *489:A 8.45346e-06
7 *446:D *101:103 9.51144e-05
*RES
1 *426:X *446:D 41.7964 
*END

*D_NET *47 0.000322113
*CONN
*I *447:D I *D sky130_fd_sc_hd__dfxtp_1
*I *428:X O *D sky130_fd_sc_hd__clkbuf_1
*CAP
1 *447:D 0.000138762
2 *428:X 0.000138762
3 *447:D *428:A 0
4 *447:D *101:112 4.45884e-05
*RES
1 *428:X *447:D 29.9438 
*END

*D_NET *48 0.000367459
*CONN
*I *448:D I *D sky130_fd_sc_hd__dfxtp_1
*I *430:X O *D sky130_fd_sc_hd__clkbuf_1
*CAP
1 *448:D 0.000120599
2 *430:X 0.000120599
3 *448:D *448:CLK 0.00012626
*RES
1 *430:X *448:D 20.658 
*END

*D_NET *49 0.000806254
*CONN
*I *449:D I *D sky130_fd_sc_hd__dfxtp_1
*I *432:X O *D sky130_fd_sc_hd__clkbuf_1
*CAP
1 *449:D 0.000319123
2 *432:X 0.000319123
3 *449:D *432:A 0.000113002
4 *449:D *449:CLK 5.50052e-05
*RES
1 *432:X *449:D 23.2473 
*END

*D_NET *50 0.000603034
*CONN
*I *450:D I *D sky130_fd_sc_hd__dfxtp_1
*I *434:X O *D sky130_fd_sc_hd__clkbuf_1
*CAP
1 *450:D 0.000188247
2 *434:X 0.000188247
3 *450:D *432:A 7.4854e-05
4 *450:D *450:CLK 7.58841e-05
5 *450:D *71:18 7.5802e-05
*RES
1 *434:X *450:D 31.0688 
*END

*D_NET *51 0.00160144
*CONN
*I *451:D I *D sky130_fd_sc_hd__dfxtp_1
*I *436:X O *D sky130_fd_sc_hd__clkbuf_1
*CAP
1 *451:D 0.000486422
2 *436:X 0.000486422
3 *451:D *435:A1 0.000146853
4 *451:D *436:A 0.000272033
5 *451:D *452:D 0.000209713
*RES
1 *436:X *451:D 37.3009 
*END

*D_NET *52 0.00185935
*CONN
*I *452:D I *D sky130_fd_sc_hd__dfxtp_1
*I *438:X O *D sky130_fd_sc_hd__clkbuf_1
*CAP
1 *452:D 0.000323389
2 *438:X 0.000323389
3 *452:D *435:A1 0.000388224
4 *452:D *436:A 5.80494e-05
5 *452:D *437:S 0.000410466
6 *452:D *118:12 0.000146116
7 *451:D *452:D 0.000209713
*RES
1 *438:X *452:D 37.158 
*END

*D_NET *53 0.000526763
*CONN
*I *454:D I *D sky130_fd_sc_hd__dfxtp_1
*I *440:X O *D sky130_fd_sc_hd__clkbuf_1
*CAP
1 *454:D 0.000131885
2 *440:X 0.000131885
3 *454:D *439:A 0.000149467
4 *453:D *454:D 1.00887e-05
5 *24:10 *454:D 0.000103437
*RES
1 *440:X *454:D 30.5688 
*END

*D_NET *54 0.0014629
*CONN
*I *455:D I *D sky130_fd_sc_hd__dfxtp_1
*I *376:Y O *D sky130_fd_sc_hd__a21oi_1
*CAP
1 *455:D 0.000540588
2 *376:Y 0.000540588
3 *455:D *376:B1 6.23058e-05
4 *455:D *417:A 1.60328e-05
5 *455:D *419:A 0.000107845
6 *455:D *419:B 2.85321e-05
7 *443:D *455:D 0.00016701
*RES
1 *376:Y *455:D 28.5286 
*END

*D_NET *55 0.00144631
*CONN
*I *393:A I *D sky130_fd_sc_hd__clkbuf_1
*I *392:X O *D sky130_fd_sc_hd__mux2_1
*CAP
1 *393:A 0.000505233
2 *392:X 0.000505233
3 *393:A *390:S 4.80983e-05
4 *393:A *392:A0 5.10039e-05
5 *393:A *392:A1 1.35553e-05
6 *460:D *393:A 5.2254e-05
7 *461:D *393:A 0.000270929
*RES
1 *392:X *393:A 36.0643 
*END

*D_NET *56 0.000233824
*CONN
*I *395:A I *D sky130_fd_sc_hd__clkbuf_1
*I *394:X O *D sky130_fd_sc_hd__mux2_1
*CAP
1 *395:A 0.000116912
2 *394:X 0.000116912
*RES
1 *394:X *395:A 20.6893 
*END

*D_NET *57 0.000443776
*CONN
*I *397:A I *D sky130_fd_sc_hd__clkbuf_1
*I *396:X O *D sky130_fd_sc_hd__mux2_1
*CAP
1 *397:A 0.000119364
2 *396:X 0.000119364
3 *397:A *396:A1 0.000150043
4 *397:A *90:69 5.50052e-05
*RES
1 *396:X *397:A 30.0821 
*END

*D_NET *58 0.0003255
*CONN
*I *399:A I *D sky130_fd_sc_hd__clkbuf_1
*I *398:X O *D sky130_fd_sc_hd__mux2_1
*CAP
1 *399:A 6.64152e-05
2 *398:X 6.64152e-05
3 *399:A *398:A0 0.000143375
4 *399:A *398:A1 4.92949e-05
*RES
1 *398:X *399:A 20.6893 
*END

*D_NET *59 0.00145433
*CONN
*I *401:A I *D sky130_fd_sc_hd__clkbuf_1
*I *400:X O *D sky130_fd_sc_hd__mux2_1
*CAP
1 *401:A 0.000203173
2 *400:X 0.000203173
3 *401:A *400:S 0.000568731
4 *401:A *423:A0 0.000125524
5 *401:A *423:S 0.000230482
6 *401:A *464:CLK 0
7 *401:A *482:A 7.73551e-05
8 *401:A *101:29 4.58976e-05
*RES
1 *400:X *401:A 35.3143 
*END

*D_NET *60 0.000355487
*CONN
*I *403:A I *D sky130_fd_sc_hd__clkbuf_1
*I *402:X O *D sky130_fd_sc_hd__mux2_1
*CAP
1 *403:A 0.000156948
2 *402:X 0.000156948
3 *403:A *402:S 0
4 *403:A *425:A0 0
5 *403:A *478:A 4.15914e-05
6 *403:A *493:A 0
*RES
1 *402:X *403:A 30.4929 
*END

*D_NET *61 0.000307288
*CONN
*I *405:A I *D sky130_fd_sc_hd__clkbuf_1
*I *404:X O *D sky130_fd_sc_hd__mux2_1
*CAP
1 *405:A 8.69386e-05
2 *404:X 8.69386e-05
3 *405:A *383:A 4.64594e-05
4 *467:D *405:A 8.69511e-05
*RES
1 *404:X *405:A 29.7786 
*END

*D_NET *62 0.000151547
*CONN
*I *407:A I *D sky130_fd_sc_hd__clkbuf_1
*I *406:X O *D sky130_fd_sc_hd__mux2_1
*CAP
1 *407:A 6.03405e-05
2 *406:X 6.03405e-05
3 *407:A *100:16 3.08664e-05
*RES
1 *406:X *407:A 19.8679 
*END

*D_NET *63 0.000144854
*CONN
*I *409:A I *D sky130_fd_sc_hd__clkbuf_1
*I *408:X O *D sky130_fd_sc_hd__mux2_1
*CAP
1 *409:A 6.27005e-05
2 *408:X 6.27005e-05
3 *409:A *406:A1 1.94526e-05
*RES
1 *408:X *409:A 19.8679 
*END

*D_NET *64 0.000265945
*CONN
*I *411:A I *D sky130_fd_sc_hd__clkbuf_1
*I *410:X O *D sky130_fd_sc_hd__mux2_1
*CAP
1 *411:A 0.000132972
2 *410:X 0.000132972
*RES
1 *410:X *411:A 29.7786 
*END

*D_NET *65 0.000770663
*CONN
*I *413:A I *D sky130_fd_sc_hd__clkbuf_1
*I *412:X O *D sky130_fd_sc_hd__mux2_1
*CAP
1 *413:A 0.000340138
2 *412:X 0.000340138
3 *413:A *379:A 0
4 *413:A *412:A1 5.45307e-05
5 *471:D *413:A 3.58558e-05
*RES
1 *412:X *413:A 33.1536 
*END

*D_NET *66 0.00210772
*CONN
*I *416:A I *D sky130_fd_sc_hd__nor2_1
*I *418:B I *D sky130_fd_sc_hd__and2_1
*I *417:B I *D sky130_fd_sc_hd__nor2_1
*I *414:X O *D sky130_fd_sc_hd__and2b_1
*CAP
1 *416:A 0.00028222
2 *418:B 3.84141e-05
3 *417:B 0.00016038
4 *414:X 0
5 *66:8 0.000351762
6 *66:6 0.000435189
7 *416:A *416:B 0.000258671
8 *417:B *376:B1 0
9 *417:B *97:25 0.000239453
10 *418:B *420:A 3.99614e-06
11 *418:B *69:6 1.24368e-05
12 *418:B *97:74 7.25163e-05
13 *418:B *98:10 4.62024e-05
14 *66:8 *376:B1 0
15 *66:8 *414:B 0
16 *66:8 *416:B 1.00887e-05
17 *66:8 *97:23 6.73939e-05
18 *66:8 *97:25 3.34295e-05
19 *442:D *416:A 9.55638e-05
*RES
1 *414:X *66:6 13.8 
2 *66:6 *66:8 2.85714 
3 *66:8 *417:B 16.9607 
4 *66:8 *418:B 15.175 
5 *66:6 *416:A 19.3536 
*END

*D_NET *67 0.00063075
*CONN
*I *416:B I *D sky130_fd_sc_hd__nor2_1
*I *415:X O *D sky130_fd_sc_hd__and2b_1
*CAP
1 *416:B 0.000170179
2 *415:X 0.000170179
3 *416:B *96:63 2.16315e-05
4 *416:A *416:B 0.000258671
5 *66:8 *416:B 1.00887e-05
*RES
1 *415:X *416:B 31.6714 
*END

*D_NET *68 0.00024222
*CONN
*I *419:A I *D sky130_fd_sc_hd__nor2_1
*I *417:Y O *D sky130_fd_sc_hd__nor2_1
*CAP
1 *419:A 3.92936e-05
2 *417:Y 3.92936e-05
3 *419:A *417:A 5.57887e-05
4 *455:D *419:A 0.000107845
*RES
1 *417:Y *419:A 19.975 
*END

*D_NET *69 0.000730458
*CONN
*I *420:B I *D sky130_fd_sc_hd__xor2_1
*I *419:B I *D sky130_fd_sc_hd__nor2_1
*I *418:X O *D sky130_fd_sc_hd__and2_1
*CAP
1 *420:B 0
2 *419:B 0.000103323
3 *418:X 4.36256e-05
4 *69:6 0.000146948
5 *419:B *372:S0 9.64425e-05
6 *419:B *97:25 0.00019286
7 *69:6 *97:74 1.21258e-05
8 *69:6 *98:10 9.41642e-05
9 *418:B *69:6 1.24368e-05
10 *455:D *419:B 2.85321e-05
*RES
1 *418:X *69:6 10.2464 
2 *69:6 *419:B 21.3893 
3 *69:6 *420:B 9.3 
*END

*D_NET *70 0.000259652
*CONN
*I *422:A I *D sky130_fd_sc_hd__buf_2
*I *421:X O *D sky130_fd_sc_hd__or4b_1
*CAP
1 *422:A 6.4892e-05
2 *421:X 6.4892e-05
3 *422:A *96:14 0.000129868
4 *422:A *101:112 0
*RES
1 *421:X *422:A 29.2429 
*END

*D_NET *71 0.0119478
*CONN
*I *437:S I *D sky130_fd_sc_hd__mux2_1
*I *435:S I *D sky130_fd_sc_hd__mux2_1
*I *433:S I *D sky130_fd_sc_hd__mux2_1
*I *429:S I *D sky130_fd_sc_hd__mux2_1
*I *425:S I *D sky130_fd_sc_hd__mux2_1
*I *423:S I *D sky130_fd_sc_hd__mux2_1
*I *427:S I *D sky130_fd_sc_hd__mux2_1
*I *431:S I *D sky130_fd_sc_hd__mux2_1
*I *422:X O *D sky130_fd_sc_hd__buf_2
*CAP
1 *437:S 0.00030365
2 *435:S 0.000100897
3 *433:S 4.47678e-05
4 *429:S 1.3709e-05
5 *425:S 8.28492e-05
6 *423:S 0.000143089
7 *427:S 2.18506e-05
8 *431:S 3.50937e-05
9 *422:X 0.000764835
10 *71:92 0.000433396
11 *71:65 0.000247523
12 *71:50 0.000488506
13 *71:37 0.000920407
14 *71:18 0.00123684
15 *71:10 0.00063538
16 *71:8 0.000886648
17 *423:S *423:A1 6.00795e-05
18 *423:S *482:A 0.000248113
19 *423:S *101:12 0
20 *423:S *101:29 0.000274294
21 *425:S *101:70 5.28387e-05
22 *431:S *431:A0 1.52013e-05
23 *431:S *432:A 5.52238e-05
24 *433:S *433:A0 1.62025e-05
25 *433:S *433:A1 2.85234e-05
26 *435:S *435:A0 0.000100165
27 *435:S *435:A1 2.38501e-05
28 *437:S *435:A1 0.000164051
29 *437:S *436:A 0.00059878
30 *437:S *437:A0 9.84673e-05
31 *437:S *437:A1 1.38323e-05
32 *437:S *140:8 0
33 *71:8 *370:S 0.000187492
34 *71:8 *371:C_N 0.00053204
35 *71:18 *432:A 0.000310009
36 *71:18 *450:CLK 1.86382e-05
37 *71:18 *473:A 0
38 *71:18 *100:12 0
39 *71:37 *427:A0 0.000812561
40 *71:37 *428:A 5.31032e-05
41 *71:37 *429:A1 2.85321e-05
42 *71:37 *431:A0 8.01831e-06
43 *71:37 *431:A1 0.000316135
44 *71:37 *432:A 0.00031614
45 *71:37 *492:A 7.25699e-05
46 *71:50 *372:A0 5.5764e-05
47 *71:50 *423:A1 6.94441e-06
48 *71:50 *429:A0 6.11331e-05
49 *71:50 *429:A1 6.35559e-05
50 *71:50 *482:A 9.10894e-05
51 *71:50 *490:A 0.000125613
52 *71:65 *101:70 2.97489e-05
53 *71:92 *436:A 3.2923e-05
54 *401:A *423:S 0.000230482
55 *450:D *71:18 7.5802e-05
56 *452:D *437:S 0.000410466
*RES
1 *422:X *71:8 24.1929 
2 *71:8 *71:10 1.64286 
3 *71:10 *71:18 14.6964 
4 *71:18 *431:S 10.2643 
5 *71:18 *71:37 18.4821 
6 *71:37 *427:S 9.72857 
7 *71:37 *71:50 9.82143 
8 *71:50 *423:S 19.55 
9 *71:50 *71:65 6.67857 
10 *71:65 *425:S 11.0857 
11 *71:65 *429:S 9.72857 
12 *71:10 *433:S 14.7464 
13 *71:8 *71:92 0.732143 
14 *71:92 *435:S 15.9786 
15 *71:92 *437:S 23.6929 
*END

*D_NET *72 0.00187943
*CONN
*I *480:A I *D sky130_fd_sc_hd__dlygate4sd3_1
*I *423:X O *D sky130_fd_sc_hd__mux2_1
*CAP
1 *480:A 0.000829708
2 *423:X 0.000829708
3 *480:A *375:A2 6.23278e-05
4 *480:A *400:A0 2.84109e-05
5 *480:A *423:A0 7.64988e-05
6 *480:A *101:12 0
7 *445:D *480:A 5.2781e-05
*RES
1 *423:X *480:A 41.6714 
*END

*D_NET *73 0.00134232
*CONN
*I *426:A I *D sky130_fd_sc_hd__clkbuf_1
*I *425:X O *D sky130_fd_sc_hd__mux2_1
*CAP
1 *426:A 0.000416278
2 *425:X 0.000416278
3 *426:A *406:A0 0.000343174